  
       XFOIL         Version 6.99
  
 Calculated polar for: Selig S-1223                                    
  
 1 1 Reynolds number fixed          Mach number fixed         
  
 xtrf =   1.000 (top)        1.000 (bottom)  
 Mach =   0.030     Re =     0.200 e 6     Ncrit =   9.000
  
   alpha    CL        CD       CDp       CM     Top_Xtr  Bot_Xtr
  ------ -------- --------- --------- -------- -------- --------
  -2.000   0.8006   0.02374   0.01725  -0.2368   0.5712   0.0836
  -1.900   0.8065   0.02415   0.01768  -0.2358   0.5652   0.0937
  -1.800   0.8120   0.02456   0.01815  -0.2344   0.5600   0.1005
  -1.700   0.8168   0.02493   0.01855  -0.2329   0.5551   0.1084
  -1.600   0.9585   0.01831   0.00968  -0.2613   0.5438   0.0526
  -1.500   0.9743   0.01818   0.00943  -0.2621   0.5388   0.0534
  -1.400   0.9893   0.01806   0.00928  -0.2629   0.5345   0.0544
  -1.300   1.0042   0.01798   0.00916  -0.2636   0.5301   0.0559
  -1.200   1.0195   0.01791   0.00902  -0.2645   0.5262   0.0575
  -1.100   1.0343   0.01784   0.00896  -0.2652   0.5221   0.0591
  -1.000   1.0502   0.01781   0.00888  -0.2661   0.5186   0.0613
  -0.900   1.0650   0.01777   0.00884  -0.2669   0.5147   0.0639
  -0.800   1.0812   0.01776   0.00880  -0.2679   0.5115   0.0669
  -0.700   1.0966   0.01774   0.00878  -0.2688   0.5079   0.0711
  -0.600   1.1126   0.01773   0.00873  -0.2698   0.5046   0.0767
  -0.500   1.1305   0.01771   0.00868  -0.2713   0.5017   0.0876
  -0.400   1.1537   0.01748   0.00884  -0.2741   0.4979   0.2374
  -0.300   1.1652   0.01767   0.00895  -0.2740   0.4954   0.2644
  -0.200   1.1767   0.01783   0.00906  -0.2740   0.4929   0.2797
  -0.100   1.1883   0.01796   0.00917  -0.2740   0.4901   0.2912
   0.000   1.1999   0.01811   0.00927  -0.2740   0.4877   0.3024
   0.100   1.2130   0.01831   0.00941  -0.2744   0.4856   0.3174
   0.200   1.2220   0.01844   0.00954  -0.2739   0.4830   0.3310
   0.300   1.2329   0.01859   0.00971  -0.2738   0.4806   0.3437
   0.400   1.2455   0.01874   0.00981  -0.2740   0.4786   0.3546
   0.500   1.2577   0.01886   0.00990  -0.2741   0.4766   0.3623
   0.600   1.2697   0.01894   0.00999  -0.2743   0.4742   0.3681
   0.700   1.2811   0.01903   0.01004  -0.2743   0.4720   0.3735
   0.800   1.2937   0.01913   0.01009  -0.2745   0.4702   0.3789
   0.900   1.3070   0.01924   0.01016  -0.2749   0.4685   0.3839
   1.000   1.3186   0.01931   0.01025  -0.2750   0.4662   0.3894
   1.100   1.3304   0.01940   0.01033  -0.2750   0.4643   0.3945
   1.200   1.3426   0.01949   0.01039  -0.2752   0.4625   0.3998
   1.300   1.3572   0.01962   0.01046  -0.2759   0.4610   0.4063
   1.400   1.3688   0.01971   0.01056  -0.2759   0.4592   0.4127
   1.500   1.3793   0.01979   0.01067  -0.2758   0.4573   0.4187
   1.600   1.3913   0.01988   0.01076  -0.2759   0.4555   0.4256
   1.700   1.4055   0.02000   0.01086  -0.2765   0.4540   0.4338
   1.800   1.4184   0.02012   0.01094  -0.2769   0.4525   0.4418
   1.900   1.4278   0.02020   0.01105  -0.2764   0.4508   0.4501
   2.000   1.4412   0.02031   0.01119  -0.2769   0.4491   0.4602
   2.100   1.4520   0.02040   0.01130  -0.2768   0.4474   0.4704
   2.200   1.4643   0.02051   0.01141  -0.2770   0.4460   0.4812
   2.300   1.4777   0.02063   0.01151  -0.2774   0.4447   0.4951
   2.400   1.4901   0.02075   0.01166  -0.2777   0.4433   0.5087
   2.500   1.4998   0.02083   0.01181  -0.2773   0.4418   0.5221
   2.600   1.5124   0.02095   0.01197  -0.2776   0.4402   0.5390
   2.700   1.5261   0.02107   0.01212  -0.2781   0.4387   0.5584
   2.800   1.5379   0.02118   0.01225  -0.2782   0.4376   0.5794
   2.900   1.5509   0.02130   0.01238  -0.2785   0.4363   0.6024
   3.000   1.5608   0.02139   0.01253  -0.2782   0.4351   0.6269
   3.100   1.5702   0.02147   0.01270  -0.2778   0.4336   0.6552
   3.200   1.5818   0.02157   0.01288  -0.2779   0.4321   0.6879
   3.300   1.5965   0.02169   0.01307  -0.2785   0.4307   0.7319
   3.400   1.6022   0.02170   0.01314  -0.2773   0.4297   0.7773
   3.500   1.6065   0.02164   0.01316  -0.2757   0.4288   0.8519
   3.600   1.6152   0.02163   0.01314  -0.2751   0.4279   1.0000
   3.700   1.6253   0.02179   0.01331  -0.2748   0.4264   1.0000
   3.800   1.6353   0.02195   0.01347  -0.2746   0.4250   1.0000
   3.900   1.6456   0.02210   0.01361  -0.2744   0.4237   1.0000
   4.000   1.6569   0.02226   0.01374  -0.2745   0.4226   1.0000
   4.100   1.6701   0.02244   0.01388  -0.2749   0.4214   1.0000
   4.200   1.6826   0.02262   0.01400  -0.2752   0.4203   1.0000
   4.300   1.6945   0.02279   0.01415  -0.2753   0.4194   1.0000
   4.400   1.7030   0.02295   0.01435  -0.2747   0.4181   1.0000
   4.500   1.7148   0.02315   0.01456  -0.2749   0.4166   1.0000
   4.600   1.7232   0.02328   0.01469  -0.2743   0.4153   1.0000
   4.700   1.7362   0.02347   0.01486  -0.2747   0.4142   1.0000
   4.800   1.7456   0.02362   0.01499  -0.2743   0.4133   1.0000
   4.900   1.7599   0.02383   0.01515  -0.2750   0.4124   1.0000
   5.000   1.7717   0.02401   0.01531  -0.2751   0.4112   1.0000
   5.100   1.7779   0.02416   0.01552  -0.2741   0.4100   1.0000
   5.200   1.7892   0.02436   0.01575  -0.2742   0.4085   1.0000
   5.300   1.7990   0.02453   0.01592  -0.2739   0.4073   1.0000
   5.400   1.8105   0.02471   0.01610  -0.2740   0.4062   1.0000
   5.500   1.8223   0.02489   0.01624  -0.2741   0.4051   1.0000
   5.600   1.8328   0.02505   0.01637  -0.2740   0.4042   1.0000
   5.700   1.8450   0.02526   0.01658  -0.2742   0.4032   1.0000
   5.800   1.8529   0.02545   0.01684  -0.2736   0.4017   1.0000
   5.900   1.8631   0.02565   0.01708  -0.2734   0.4003   1.0000
   6.000   1.8724   0.02582   0.01726  -0.2730   0.3991   1.0000
   6.100   1.8842   0.02602   0.01745  -0.2732   0.3981   1.0000
   6.200   1.8936   0.02615   0.01755  -0.2728   0.3970   1.0000
   6.300   1.9081   0.02634   0.01769  -0.2735   0.3959   1.0000
   6.400   1.9153   0.02655   0.01797  -0.2728   0.3946   1.0000
   6.500   1.9244   0.02678   0.01826  -0.2724   0.3933   1.0000
   6.600   1.9337   0.02695   0.01847  -0.2720   0.3916   1.0000
   6.700   1.9437   0.02713   0.01865  -0.2718   0.3905   1.0000
   6.800   1.9539   0.02729   0.01880  -0.2716   0.3895   1.0000
   6.900   1.9649   0.02744   0.01891  -0.2716   0.3885   1.0000
   7.000   1.9725   0.02761   0.01909  -0.2709   0.3872   1.0000
   7.100   1.9836   0.02790   0.01947  -0.2710   0.3858   1.0000
   7.200   1.9878   0.02804   0.01965  -0.2695   0.3842   1.0000
   7.300   2.0005   0.02828   0.01992  -0.2699   0.3832   1.0000
   7.400   2.0089   0.02837   0.01998  -0.2693   0.3816   1.0000
   7.500   2.0200   0.02852   0.02010  -0.2693   0.3807   1.0000
   7.600   2.0304   0.02875   0.02037  -0.2693   0.3791   1.0000
   7.700   2.0386   0.02901   0.02072  -0.2687   0.3774   1.0000
   7.800   2.0431   0.02914   0.02088  -0.2674   0.3760   1.0000
   7.900   2.0550   0.02933   0.02108  -0.2676   0.3746   1.0000
   8.000   2.0651   0.02942   0.02113  -0.2674   0.3733   1.0000
   8.100   2.0753   0.02958   0.02126  -0.2672   0.3726   1.0000
   8.200   2.0808   0.02985   0.02164  -0.2661   0.3708   1.0000
   8.300   2.0853   0.03005   0.02191  -0.2648   0.3694   1.0000
   8.400   2.0941   0.03020   0.02209  -0.2644   0.3675   1.0000
   8.500   2.1082   0.03047   0.02237  -0.2650   0.3666   1.0000
   8.600   2.1155   0.03046   0.02229  -0.2643   0.3652   1.0000
   8.700   2.1267   0.03073   0.02259  -0.2644   0.3644   1.0000
   8.800   2.1323   0.03106   0.02305  -0.2633   0.3622   1.0000
   9.200   2.1662   0.03167   0.02370  -0.2614   0.3564   1.0000
   9.300   2.1662   0.03189   0.02403  -0.2592   0.3550   1.0000
   9.400   2.1738   0.03213   0.02433  -0.2586   0.3533   1.0000
   9.500   2.1786   0.03214   0.02433  -0.2573   0.3515   1.0000
   9.600   2.1886   0.03224   0.02440  -0.2571   0.3503   1.0000
   9.700   2.1923   0.03244   0.02466  -0.2557   0.3483   1.0000
   9.800   2.1975   0.03273   0.02504  -0.2546   0.3465   1.0000
   9.900   2.2080   0.03292   0.02526  -0.2545   0.3444   1.0000
  10.200   2.2203   0.03340   0.02584  -0.2505   0.3397   1.0000
  10.400   2.2330   0.03369   0.02616  -0.2487   0.3361   1.0000
  10.500   2.2430   0.03382   0.02627  -0.2486   0.3345   1.0000
  10.600   2.2348   0.03407   0.02665  -0.2449   0.3329   1.0000
  10.700   2.2348   0.03429   0.02694  -0.2428   0.3316   1.0000
  10.800   2.2467   0.03460   0.02729  -0.2430   0.3295   1.0000
  10.900   2.2473   0.03451   0.02714  -0.2410   0.3280   1.0000
  11.000   2.2458   0.03478   0.02750  -0.2387   0.3261   1.0000
  11.100   2.2460   0.03511   0.02791  -0.2367   0.3247   1.0000
  11.200   2.2546   0.03549   0.02835  -0.2364   0.3227   1.0000
  11.300   2.2577   0.03558   0.02844  -0.2349   0.3214   1.0000
  11.400   2.2619   0.03559   0.02842  -0.2336   0.3200   1.0000
  11.500   2.2608   0.03611   0.02907  -0.2315   0.3184   1.0000
  11.600   2.2620   0.03652   0.02957  -0.2298   0.3165   1.0000
  11.700   2.2621   0.03669   0.02977  -0.2278   0.3150   1.0000
  12.100   2.2686   0.03802   0.03131  -0.2215   0.3077   1.0000
  12.200   2.2719   0.03810   0.03137  -0.2202   0.3063   1.0000
  12.300   2.2709   0.03855   0.03190  -0.2182   0.3047   1.0000
  12.700   2.2668   0.04033   0.03394  -0.2107   0.2967   1.0000
  12.800   2.2685   0.04087   0.03457  -0.2094   0.2949   1.0000
  12.900   2.2727   0.04126   0.03499  -0.2084   0.2932   1.0000
  13.000   2.2669   0.04124   0.03495  -0.2056   0.2920   1.0000
  13.100   2.2632   0.04230   0.03618  -0.2037   0.2892   1.0000
  13.200   2.2720   0.04309   0.03702  -0.2039   0.2865   1.0000
  13.300   2.2728   0.04347   0.03743  -0.2024   0.2850   1.0000
  13.600   2.2670   0.04526   0.03938  -0.1973   0.2789   1.0000
  13.700   2.2562   0.04588   0.04010  -0.1942   0.2769   1.0000
  13.800   2.2574   0.04678   0.04107  -0.1934   0.2744   1.0000
  13.900   2.2598   0.04759   0.04190  -0.1927   0.2718   1.0000
  14.200   2.2500   0.04995   0.04444  -0.1879   0.2651   1.0000
  14.300   2.2448   0.05103   0.04560  -0.1864   0.2622   1.0000
  14.400   2.2417   0.05174   0.04634  -0.1848   0.2600   1.0000
  14.500   2.2414   0.05319   0.04788  -0.1843   0.2565   1.0000
  14.600   2.2399   0.05410   0.04883  -0.1832   0.2545   1.0000
  14.700   2.2289   0.05518   0.04995  -0.1810   0.2510   1.0000
  14.800   2.2307   0.05659   0.05140  -0.1809   0.2479   1.0000
  14.900   2.2258   0.05773   0.05261  -0.1797   0.2455   1.0000
  15.000   2.2234   0.05924   0.05416  -0.1791   0.2421   1.0000
  15.200   2.2157   0.06231   0.05732  -0.1778   0.2356   1.0000
  15.300   2.2117   0.06390   0.05898  -0.1771   0.2327   1.0000
  15.400   2.2115   0.06612   0.06121  -0.1777   0.2285   1.0000
  15.600   2.1910   0.06878   0.06396  -0.1744   0.2238   1.0000
  15.700   2.1829   0.07089   0.06610  -0.1740   0.2200   1.0000
  15.800   2.1807   0.07307   0.06830  -0.1743   0.2169   1.0000
  15.900   2.1736   0.07562   0.07090  -0.1745   0.2128   1.0000
  16.000   2.1668   0.07813   0.07344  -0.1747   0.2090   1.0000
