  
       XFOIL         Version 6.99
  
 Calculated polar for: Selig S-3021                                    
  
 1 1 Reynolds number fixed          Mach number fixed         
  
 xtrf =   1.000 (top)        1.000 (bottom)  
 Mach =   0.030     Re =     0.100 e 6     Ncrit =   6.000
  
   alpha    CL        CD       CDp       CM     Top_Xtr  Bot_Xtr
  ------ -------- --------- --------- -------- -------- --------
  -2.000   0.0746   0.01316   0.00628  -0.0622   0.8686   0.6039
  -1.900   0.0821   0.01280   0.00630  -0.0608   0.8643   0.7101
  -1.700   0.1394   0.01232   0.00606  -0.0657   0.8611   0.9534
  -1.600   0.1672   0.01222   0.00582  -0.0690   0.8579   0.9905
  -1.500   0.1884   0.01217   0.00564  -0.0710   0.8540   1.0000
  -1.400   0.1991   0.01218   0.00555  -0.0709   0.8491   1.0000
  -1.300   0.2086   0.01219   0.00546  -0.0705   0.8437   1.0000
  -1.200   0.2164   0.01220   0.00538  -0.0698   0.8382   1.0000
  -1.100   0.2269   0.01222   0.00531  -0.0696   0.8330   1.0000
  -1.000   0.2378   0.01225   0.00525  -0.0695   0.8280   1.0000
  -0.900   0.2477   0.01228   0.00519  -0.0692   0.8231   1.0000
  -0.800   0.2584   0.01230   0.00513  -0.0690   0.8181   1.0000
  -0.700   0.2691   0.01233   0.00507  -0.0689   0.8140   1.0000
  -0.600   0.2801   0.01236   0.00504  -0.0688   0.8091   1.0000
  -0.500   0.2890   0.01239   0.00500  -0.0683   0.8039   1.0000
  -0.400   0.2997   0.01243   0.00497  -0.0681   0.7991   1.0000
  -0.300   0.3094   0.01247   0.00494  -0.0678   0.7945   1.0000
  -0.200   0.3176   0.01251   0.00491  -0.0671   0.7900   1.0000
  -0.100   0.3273   0.01255   0.00489  -0.0667   0.7855   1.0000
   0.000   0.3380   0.01259   0.00487  -0.0666   0.7805   1.0000
   0.100   0.3476   0.01264   0.00486  -0.0662   0.7760   1.0000
   0.200   0.3576   0.01269   0.00485  -0.0660   0.7716   1.0000
   0.300   0.3671   0.01273   0.00483  -0.0655   0.7670   1.0000
   0.400   0.3785   0.01278   0.00484  -0.0655   0.7625   1.0000
   0.500   0.3864   0.01283   0.00484  -0.0648   0.7577   1.0000
   0.600   0.3980   0.01288   0.00485  -0.0649   0.7533   1.0000
   0.700   0.4079   0.01293   0.00485  -0.0645   0.7488   1.0000
   0.800   0.4169   0.01298   0.00485  -0.0640   0.7445   1.0000
   0.900   0.4271   0.01304   0.00487  -0.0638   0.7397   1.0000
   1.000   0.4374   0.01309   0.00488  -0.0636   0.7349   1.0000
   1.100   0.4487   0.01315   0.00490  -0.0636   0.7304   1.0000
   1.200   0.4581   0.01320   0.00491  -0.0631   0.7264   1.0000
   1.300   0.4671   0.01326   0.00494  -0.0626   0.7216   1.0000
   1.400   0.4772   0.01332   0.00497  -0.0624   0.7168   1.0000
   1.500   0.4873   0.01338   0.00500  -0.0621   0.7120   1.0000
   1.600   0.4980   0.01343   0.00502  -0.0619   0.7074   1.0000
   1.700   0.5077   0.01349   0.00504  -0.0616   0.7031   1.0000
   1.800   0.5179   0.01354   0.00507  -0.0613   0.6981   1.0000
   1.900   0.5288   0.01361   0.00512  -0.0612   0.6931   1.0000
   2.000   0.5378   0.01367   0.00515  -0.0607   0.6882   1.0000
   2.100   0.5480   0.01373   0.00519  -0.0605   0.6836   1.0000
   2.200   0.5582   0.01379   0.00523  -0.0602   0.6792   1.0000
   2.300   0.5683   0.01385   0.00527  -0.0599   0.6745   1.0000
   2.400   0.5785   0.01392   0.00533  -0.0597   0.6696   1.0000
   2.500   0.5884   0.01398   0.00539  -0.0594   0.6647   1.0000
   2.600   0.5989   0.01405   0.00544  -0.0592   0.6597   1.0000
   2.700   0.6084   0.01411   0.00548  -0.0588   0.6549   1.0000
