  
       XFOIL         Version 6.99
  
 Calculated polar for: S3021-095-84                                    
  
 1 1 Reynolds number fixed          Mach number fixed         
  
 xtrf =   1.000 (top)        1.000 (bottom)  
 Mach =   0.030     Re =     0.200 e 6     Ncrit =   6.000
  
   alpha    CL        CD       CDp       CM     Top_Xtr  Bot_Xtr
  ------ -------- --------- --------- -------- -------- --------
  -1.800   0.1055   0.01059   0.00328  -0.0591   0.7812   0.3058
  -1.700   0.1149   0.01036   0.00323  -0.0588   0.7767   0.3624
  -1.600   0.1242   0.01013   0.00320  -0.0585   0.7723   0.4207
  -1.500   0.1329   0.00987   0.00317  -0.0580   0.7679   0.4886
  -1.400   0.1405   0.00955   0.00316  -0.0572   0.7637   0.5763
  -1.300   0.1472   0.00921   0.00317  -0.0561   0.7596   0.6716
  -1.200   0.1537   0.00888   0.00322  -0.0546   0.7556   0.7836
  -1.100   0.1754   0.00872   0.00326  -0.0559   0.7519   0.8983
  -1.000   0.1977   0.00871   0.00320  -0.0579   0.7479   0.9425
  -0.900   0.2160   0.00872   0.00314  -0.0593   0.7439   0.9626
  -0.800   0.2341   0.00873   0.00307  -0.0607   0.7397   0.9785
  -0.700   0.2540   0.00872   0.00299  -0.0625   0.7354   0.9906
  -0.600   0.2765   0.00871   0.00290  -0.0649   0.7311   0.9997
  -0.500   0.2864   0.00873   0.00287  -0.0647   0.7269   1.0000
  -0.400   0.2956   0.00876   0.00283  -0.0643   0.7226   1.0000
  -0.300   0.3066   0.00879   0.00281  -0.0642   0.7185   1.0000
  -0.200   0.3163   0.00882   0.00278  -0.0639   0.7142   1.0000
  -0.100   0.3266   0.00885   0.00276  -0.0637   0.7101   1.0000
   0.000   0.3373   0.00888   0.00273  -0.0636   0.7057   1.0000
   0.100   0.3480   0.00891   0.00272  -0.0635   0.7015   1.0000
   0.200   0.3558   0.00895   0.00270  -0.0628   0.6974   1.0000
   0.300   0.3668   0.00898   0.00269  -0.0627   0.6931   1.0000
   0.400   0.3775   0.00902   0.00268  -0.0626   0.6886   1.0000
   0.500   0.3872   0.00905   0.00267  -0.0623   0.6845   1.0000
   0.600   0.3958   0.00909   0.00266  -0.0617   0.6801   1.0000
   0.700   0.4073   0.00912   0.00266  -0.0618   0.6758   1.0000
   0.800   0.4170   0.00916   0.00266  -0.0615   0.6715   1.0000
   0.900   0.4272   0.00920   0.00266  -0.0613   0.6672   1.0000
   1.000   0.4369   0.00924   0.00267  -0.0609   0.6630   1.0000
   1.100   0.4486   0.00928   0.00268  -0.0611   0.6587   1.0000
   1.200   0.4584   0.00932   0.00268  -0.0608   0.6545   1.0000
   1.300   0.4668   0.00936   0.00269  -0.0601   0.6503   1.0000
   1.400   0.4781   0.00941   0.00270  -0.0602   0.6460   1.0000
   1.500   0.4878   0.00945   0.00272  -0.0599   0.6418   1.0000
   1.600   0.4980   0.00949   0.00273  -0.0596   0.6376   1.0000
   1.700   0.5092   0.00954   0.00275  -0.0596   0.6331   1.0000
   1.800   0.5183   0.00958   0.00277  -0.0592   0.6287   1.0000
   1.900   0.5287   0.00963   0.00280  -0.0590   0.6243   1.0000
   2.000   0.5394   0.00967   0.00282  -0.0589   0.6198   1.0000
   2.100   0.5492   0.00972   0.00285  -0.0586   0.6154   1.0000
   2.200   0.5584   0.00977   0.00288  -0.0582   0.6110   1.0000
   2.300   0.5695   0.00982   0.00291  -0.0581   0.6063   1.0000
   2.400   0.5791   0.00986   0.00294  -0.0578   0.6018   1.0000
   2.500   0.5896   0.00991   0.00298  -0.0577   0.5973   1.0000
   2.600   0.5997   0.00997   0.00301  -0.0574   0.5925   1.0000
   2.700   0.6099   0.01002   0.00305  -0.0572   0.5879   1.0000
   2.800   0.6209   0.01007   0.00309  -0.0572   0.5829   1.0000
   2.900   0.6307   0.01012   0.00313  -0.0569   0.5781   1.0000
   3.000   0.6407   0.01018   0.00317  -0.0566   0.5731   1.0000
   3.100   0.6508   0.01023   0.00322  -0.0564   0.5679   1.0000
   3.200   0.6607   0.01029   0.00326  -0.0561   0.5627   1.0000
   3.300   0.6711   0.01034   0.00331  -0.0560   0.5575   1.0000
   3.400   0.6812   0.01040   0.00336  -0.0558   0.5522   1.0000
   3.500   0.6912   0.01046   0.00341  -0.0555   0.5468   1.0000
   3.600   0.7014   0.01053   0.00346  -0.0553   0.5412   1.0000
   3.700   0.7115   0.01059   0.00352  -0.0551   0.5353   1.0000
   3.800   0.7220   0.01065   0.00358  -0.0550   0.5294   1.0000
   3.900   0.7320   0.01072   0.00364  -0.0547   0.5237   1.0000
   4.000   0.7420   0.01079   0.00370  -0.0545   0.5175   1.0000
   4.100   0.7523   0.01086   0.00377  -0.0543   0.5112   1.0000
   4.200   0.7622   0.01093   0.00384  -0.0541   0.5049   1.0000
   4.300   0.7721   0.01101   0.00391  -0.0538   0.4984   1.0000
   4.400   0.7821   0.01108   0.00398  -0.0536   0.4917   1.0000
   4.500   0.7921   0.01116   0.00406  -0.0534   0.4846   1.0000
   4.600   0.8019   0.01125   0.00413  -0.0531   0.4778   1.0000
   4.700   0.8119   0.01133   0.00422  -0.0529   0.4705   1.0000
   4.800   0.8217   0.01143   0.00430  -0.0526   0.4634   1.0000
   4.900   0.8315   0.01152   0.00438  -0.0524   0.4557   1.0000
   5.000   0.8412   0.01162   0.00448  -0.0521   0.4478   1.0000
   5.100   0.8510   0.01172   0.00456  -0.0519   0.4397   1.0000
   5.200   0.8607   0.01183   0.00467  -0.0516   0.4317   1.0000
   5.300   0.8704   0.01194   0.00477  -0.0514   0.4233   1.0000
   5.400   0.8799   0.01206   0.00488  -0.0511   0.4148   1.0000
   5.500   0.8894   0.01218   0.00499  -0.0508   0.4061   1.0000
   5.600   0.8989   0.01231   0.00510  -0.0505   0.3969   1.0000
   5.700   0.9081   0.01244   0.00522  -0.0502   0.3877   1.0000
   5.800   0.9174   0.01258   0.00535  -0.0499   0.3782   1.0000
   5.900   0.9270   0.01272   0.00548  -0.0497   0.3693   1.0000
   6.000   0.9366   0.01288   0.00562  -0.0495   0.3598   1.0000
   6.100   0.9456   0.01303   0.00576  -0.0491   0.3503   1.0000
   6.200   0.9549   0.01319   0.00591  -0.0488   0.3408   1.0000
   6.300   0.9635   0.01336   0.00606  -0.0484   0.3316   1.0000
   6.400   0.9733   0.01354   0.00622  -0.0483   0.3217   1.0000
   6.500   0.9819   0.01372   0.00638  -0.0479   0.3122   1.0000
   6.600   0.9910   0.01390   0.00656  -0.0476   0.3028   1.0000
   6.700   0.9997   0.01410   0.00673  -0.0472   0.2929   1.0000
   6.800   1.0086   0.01431   0.00692  -0.0469   0.2824   1.0000
   6.900   1.0169   0.01453   0.00711  -0.0465   0.2711   1.0000
   7.000   1.0251   0.01477   0.00731  -0.0461   0.2590   1.0000
   7.100   1.0329   0.01500   0.00751  -0.0456   0.2468   1.0000
   7.200   1.0411   0.01527   0.00772  -0.0453   0.2334   1.0000
   7.300   1.0487   0.01554   0.00794  -0.0448   0.2203   1.0000
   7.400   1.0579   0.01580   0.00817  -0.0447   0.2087   1.0000
   7.500   1.0655   0.01608   0.00840  -0.0442   0.1963   1.0000
   7.600   1.0743   0.01636   0.00864  -0.0440   0.1847   1.0000
   7.700   1.0813   0.01664   0.00889  -0.0434   0.1734   1.0000
   7.800   1.0881   0.01691   0.00913  -0.0428   0.1632   1.0000
   7.900   1.0960   0.01723   0.00940  -0.0424   0.1516   1.0000
   8.000   1.1041   0.01755   0.00968  -0.0421   0.1404   1.0000
   8.100   1.1127   0.01787   0.00997  -0.0419   0.1303   1.0000
   8.200   1.1200   0.01823   0.01027  -0.0415   0.1185   1.0000
   8.300   1.1269   0.01858   0.01057  -0.0410   0.1077   1.0000
   8.400   1.1325   0.01893   0.01087  -0.0402   0.0977   1.0000
   8.500   1.1393   0.01939   0.01125  -0.0398   0.0833   1.0000
   8.600   1.1454   0.01978   0.01159  -0.0392   0.0735   1.0000
   8.700   1.1513   0.02024   0.01199  -0.0386   0.0623   1.0000
   8.800   1.1563   0.02072   0.01241  -0.0379   0.0506   1.0000
   8.900   1.1613   0.02136   0.01294  -0.0372   0.0372   1.0000
   9.000   1.1660   0.02196   0.01347  -0.0365   0.0288   1.0000
   9.100   1.1704   0.02248   0.01397  -0.0357   0.0244   1.0000
   9.300   1.1791   0.02346   0.01497  -0.0339   0.0196   1.0000
   9.400   1.1854   0.02391   0.01545  -0.0334   0.0183   1.0000
   9.500   1.1899   0.02441   0.01598  -0.0326   0.0173   1.0000
   9.600   1.1973   0.02486   0.01648  -0.0324   0.0165   1.0000
   9.700   1.2015   0.02536   0.01701  -0.0316   0.0158   1.0000
   9.800   1.2020   0.02568   0.01737  -0.0299   0.0157   1.0000
   9.900   1.2090   0.02618   0.01792  -0.0297   0.0152   1.0000
  10.000   1.2121   0.02668   0.01846  -0.0287   0.0147   1.0000
  10.100   1.2146   0.02719   0.01901  -0.0278   0.0143   1.0000
  10.200   1.2177   0.02769   0.01957  -0.0269   0.0140   1.0000
  10.300   1.2220   0.02825   0.02019  -0.0263   0.0138   1.0000
  10.400   1.2238   0.02879   0.02077  -0.0253   0.0134   1.0000
  10.500   1.2275   0.02945   0.02148  -0.0249   0.0131   1.0000
  10.600   1.2282   0.03001   0.02207  -0.0238   0.0130   1.0000
  10.700   1.2273   0.03057   0.02268  -0.0225   0.0128   1.0000
  10.800   1.2305   0.03118   0.02335  -0.0220   0.0128   1.0000
  10.900   1.2324   0.03200   0.02424  -0.0215   0.0124   1.0000
  11.000   1.2348   0.03272   0.02501  -0.0210   0.0124   1.0000
  11.100   1.2366   0.03349   0.02583  -0.0206   0.0123   1.0000
  11.200   1.2369   0.03433   0.02671  -0.0200   0.0121   1.0000
  11.300   1.2376   0.03513   0.02756  -0.0194   0.0119   1.0000
  11.400   1.2356   0.03595   0.02841  -0.0185   0.0118   1.0000
  11.500   1.2392   0.03689   0.02940  -0.0187   0.0118   1.0000
  11.600   1.2403   0.03784   0.03039  -0.0185   0.0117   1.0000
  11.700   1.2380   0.03879   0.03138  -0.0177   0.0116   1.0000
  11.800   1.2403   0.03992   0.03256  -0.0180   0.0116   1.0000
  11.900   1.2390   0.04084   0.03355  -0.0173   0.0114   1.0000
  12.000   1.2413   0.04190   0.03467  -0.0174   0.0114   1.0000
  12.100   1.2403   0.04292   0.03574  -0.0170   0.0113   1.0000
  12.200   1.2394   0.04391   0.03679  -0.0165   0.0111   1.0000
  12.300   1.2399   0.04508   0.03800  -0.0166   0.0109   1.0000
  12.400   1.2386   0.04602   0.03899  -0.0160   0.0110   1.0000
  12.500   1.2400   0.04733   0.04033  -0.0164   0.0107   1.0000
  12.600   1.2384   0.04828   0.04133  -0.0157   0.0111   1.0000
  12.700   1.2417   0.04957   0.04268  -0.0165   0.0108   1.0000
  12.800   1.2417   0.05085   0.04397  -0.0167   0.0105   1.0000
  12.900   1.2386   0.05202   0.04514  -0.0162   0.0104   1.0000
  13.000   1.2390   0.05312   0.04630  -0.0161   0.0105   1.0000
  13.100   1.2402   0.05441   0.04760  -0.0164   0.0104   1.0000
  13.200   1.2421   0.05560   0.04887  -0.0167   0.0105   1.0000
  13.300   1.2393   0.05675   0.05007  -0.0162   0.0104   1.0000
  13.400   1.2408   0.05802   0.05138  -0.0164   0.0104   1.0000
  13.500   1.2371   0.05920   0.05265  -0.0159   0.0103   1.0000
  13.600   1.2386   0.06061   0.05412  -0.0163   0.0102   1.0000
  13.700   1.2387   0.06201   0.05559  -0.0166   0.0102   1.0000
  13.800   1.2375   0.06351   0.05717  -0.0167   0.0101   1.0000
  13.900   1.2402   0.06498   0.05871  -0.0175   0.0101   1.0000
  14.000   1.2371   0.06633   0.06013  -0.0174   0.0100   1.0000
  14.100   1.2382   0.06755   0.06139  -0.0175   0.0101   1.0000
  14.200   1.2349   0.06922   0.06316  -0.0177   0.0100   1.0000
  14.300   1.2333   0.07092   0.06493  -0.0183   0.0098   1.0000
  14.400   1.2323   0.07231   0.06638  -0.0184   0.0099   1.0000
  14.500   1.2293   0.07394   0.06807  -0.0186   0.0098   1.0000
  14.600   1.2269   0.07553   0.06973  -0.0189   0.0098   1.0000
  14.700   1.2249   0.07718   0.07143  -0.0193   0.0097   1.0000
  14.800   1.2256   0.07883   0.07316  -0.0201   0.0099   1.0000
  14.900   1.2231   0.08104   0.07544  -0.0211   0.0096   1.0000
  15.000   1.2192   0.08271   0.07717  -0.0213   0.0096   1.0000
  15.100   1.2162   0.08460   0.07914  -0.0219   0.0096   1.0000
  15.200   1.2141   0.08655   0.08115  -0.0227   0.0096   1.0000
  15.300   1.2123   0.08837   0.08303  -0.0236   0.0095   1.0000
  15.400   1.2064   0.09051   0.08526  -0.0239   0.0096   1.0000
  15.500   1.2059   0.09251   0.08731  -0.0253   0.0095   1.0000
  15.600   1.2038   0.09441   0.08925  -0.0260   0.0094   1.0000
  15.700   1.1967   0.09673   0.09168  -0.0266   0.0095   1.0000
  15.800   1.1947   0.09925   0.09427  -0.0283   0.0095   1.0000
  15.900   1.1904   0.10185   0.09696  -0.0297   0.0095   1.0000
  16.000   1.1851   0.10440   0.09961  -0.0309   0.0096   1.0000
