  
       XFOIL         Version 6.99
  
 Calculated polar for: S3021-095-84                                    
  
 1 1 Reynolds number fixed          Mach number fixed         
  
 xtrf =   1.000 (top)        1.000 (bottom)  
 Mach =   0.030     Re =     0.100 e 6     Ncrit =   6.000
  
   alpha    CL        CD       CDp       CM     Top_Xtr  Bot_Xtr
  ------ -------- --------- --------- -------- -------- --------
  -2.000   0.0730   0.01318   0.00631  -0.0619   0.8683   0.6027
  -1.900   0.0812   0.01274   0.00633  -0.0604   0.8646   0.7333
  -1.800   0.1119   0.01243   0.00629  -0.0629   0.8635   0.8930
  -1.600   0.1724   0.01224   0.00584  -0.0700   0.8585   0.9897
  -1.500   0.1930   0.01219   0.00566  -0.0719   0.8544   1.0000
  -1.400   0.2025   0.01219   0.00556  -0.0716   0.8491   1.0000
  -1.300   0.2120   0.01220   0.00547  -0.0712   0.8439   1.0000
  -1.200   0.2233   0.01221   0.00539  -0.0712   0.8389   1.0000
  -1.100   0.2336   0.01223   0.00531  -0.0710   0.8340   1.0000
  -1.000   0.2440   0.01225   0.00525  -0.0708   0.8290   1.0000
  -0.900   0.2529   0.01227   0.00519  -0.0703   0.8237   1.0000
  -0.800   0.2639   0.01230   0.00513  -0.0702   0.8189   1.0000
  -0.700   0.2724   0.01233   0.00509  -0.0696   0.8138   1.0000
  -0.600   0.2828   0.01236   0.00504  -0.0694   0.8091   1.0000
  -0.500   0.2936   0.01239   0.00500  -0.0693   0.8043   1.0000
  -0.400   0.3029   0.01243   0.00497  -0.0688   0.7995   1.0000
  -0.300   0.3122   0.01247   0.00494  -0.0684   0.7948   1.0000
  -0.200   0.3231   0.01251   0.00492  -0.0683   0.7902   1.0000
  -0.100   0.3321   0.01255   0.00490  -0.0678   0.7855   1.0000
   0.000   0.3425   0.01259   0.00488  -0.0676   0.7809   1.0000
   0.100   0.3516   0.01264   0.00486  -0.0671   0.7762   1.0000
   0.200   0.3614   0.01268   0.00485  -0.0668   0.7716   1.0000
   0.300   0.3722   0.01273   0.00485  -0.0666   0.7671   1.0000
   0.400   0.3812   0.01278   0.00485  -0.0661   0.7626   1.0000
   0.500   0.3914   0.01283   0.00485  -0.0659   0.7580   1.0000
   0.600   0.4020   0.01288   0.00485  -0.0657   0.7534   1.0000
   0.700   0.4116   0.01293   0.00486  -0.0653   0.7489   1.0000
   0.800   0.4214   0.01298   0.00486  -0.0650   0.7443   1.0000
   0.900   0.4312   0.01304   0.00488  -0.0647   0.7397   1.0000
   1.000   0.4412   0.01309   0.00489  -0.0644   0.7351   1.0000
   1.100   0.4509   0.01314   0.00491  -0.0640   0.7305   1.0000
   1.200   0.4604   0.01320   0.00492  -0.0636   0.7259   1.0000
   1.300   0.4714   0.01326   0.00495  -0.0635   0.7212   1.0000
   1.400   0.4810   0.01331   0.00497  -0.0632   0.7166   1.0000
   1.500   0.4905   0.01337   0.00500  -0.0628   0.7120   1.0000
   1.600   0.5008   0.01343   0.00503  -0.0625   0.7072   1.0000
   1.700   0.5114   0.01349   0.00506  -0.0624   0.7026   1.0000
   1.800   0.5212   0.01355   0.00509  -0.0620   0.6979   1.0000
   1.900   0.5309   0.01361   0.00513  -0.0617   0.6932   1.0000
   2.000   0.5407   0.01367   0.00516  -0.0613   0.6884   1.0000
   2.100   0.5512   0.01373   0.00521  -0.0612   0.6837   1.0000
   2.200   0.5609   0.01379   0.00525  -0.0608   0.6790   1.0000
   2.300   0.5711   0.01385   0.00529  -0.0606   0.6742   1.0000
   2.400   0.5807   0.01392   0.00534  -0.0602   0.6695   1.0000
   2.500   0.5910   0.01398   0.00539  -0.0600   0.6646   1.0000
   2.600   0.6011   0.01404   0.00544  -0.0597   0.6598   1.0000
   2.700   0.6109   0.01411   0.00549  -0.0594   0.6550   1.0000
   2.800   0.6209   0.01417   0.00555  -0.0591   0.6501   1.0000
   2.900   0.6307   0.01423   0.00560  -0.0588   0.6452   1.0000
   3.000   0.6408   0.01430   0.00565  -0.0585   0.6403   1.0000
   3.100   0.6507   0.01437   0.00573  -0.0582   0.6350   1.0000
   3.200   0.6611   0.01444   0.00580  -0.0580   0.6298   1.0000
   3.300   0.6706   0.01451   0.00586  -0.0576   0.6245   1.0000
   3.400   0.6807   0.01457   0.00593  -0.0574   0.6192   1.0000
   3.500   0.6908   0.01464   0.00600  -0.0571   0.6140   1.0000
   3.600   0.7008   0.01471   0.00606  -0.0568   0.6087   1.0000
   3.700   0.7108   0.01478   0.00613  -0.0565   0.6033   1.0000
   3.800   0.7206   0.01485   0.00622  -0.0562   0.5975   1.0000
   3.900   0.7305   0.01492   0.00630  -0.0559   0.5919   1.0000
   4.000   0.7403   0.01499   0.00637  -0.0556   0.5862   1.0000
   4.100   0.7503   0.01506   0.00644  -0.0553   0.5804   1.0000
   4.200   0.7601   0.01514   0.00654  -0.0550   0.5742   1.0000
   4.300   0.7699   0.01521   0.00662  -0.0547   0.5682   1.0000
   4.400   0.7798   0.01528   0.00669  -0.0544   0.5622   1.0000
   4.500   0.7894   0.01536   0.00679  -0.0541   0.5555   1.0000
   4.600   0.7992   0.01544   0.00687  -0.0538   0.5492   1.0000
   4.700   0.8089   0.01552   0.00697  -0.0534   0.5424   1.0000
   4.800   0.8186   0.01560   0.00706  -0.0531   0.5358   1.0000
   4.900   0.8282   0.01569   0.00717  -0.0528   0.5289   1.0000
   5.000   0.8380   0.01577   0.00726  -0.0525   0.5219   1.0000
   5.100   0.8475   0.01586   0.00737  -0.0521   0.5145   1.0000
   5.200   0.8571   0.01595   0.00747  -0.0518   0.5073   1.0000
   5.300   0.8665   0.01605   0.00758  -0.0514   0.4995   1.0000
   5.400   0.8760   0.01615   0.00770  -0.0511   0.4918   1.0000
   5.500   0.8853   0.01625   0.00781  -0.0507   0.4841   1.0000
   5.600   0.8949   0.01636   0.00793  -0.0504   0.4760   1.0000
   5.700   0.9040   0.01647   0.00806  -0.0500   0.4677   1.0000
   5.800   0.9132   0.01659   0.00819  -0.0496   0.4592   1.0000
   5.900   0.9223   0.01671   0.00833  -0.0492   0.4505   1.0000
   6.000   0.9313   0.01684   0.00847  -0.0488   0.4417   1.0000
   6.100   0.9407   0.01698   0.00861  -0.0485   0.4326   1.0000
   6.200   0.9494   0.01713   0.00877  -0.0480   0.4234   1.0000
   6.300   0.9584   0.01728   0.00893  -0.0476   0.4140   1.0000
   6.400   0.9671   0.01744   0.00909  -0.0472   0.4047   1.0000
   6.500   0.9758   0.01761   0.00927  -0.0468   0.3951   1.0000
   6.600   0.9846   0.01779   0.00944  -0.0464   0.3853   1.0000
   6.700   0.9933   0.01798   0.00964  -0.0460   0.3754   1.0000
   6.800   1.0016   0.01817   0.00984  -0.0455   0.3654   1.0000
   6.900   1.0099   0.01838   0.01005  -0.0450   0.3553   1.0000
   7.000   1.0182   0.01859   0.01027  -0.0446   0.3453   1.0000
   7.100   1.0263   0.01882   0.01049  -0.0441   0.3354   1.0000
   7.200   1.0347   0.01905   0.01072  -0.0437   0.3252   1.0000
   7.300   1.0427   0.01930   0.01098  -0.0432   0.3153   1.0000
   7.400   1.0498   0.01955   0.01122  -0.0426   0.3055   1.0000
   7.500   1.0579   0.01982   0.01149  -0.0422   0.2955   1.0000
   7.600   1.0656   0.02010   0.01177  -0.0417   0.2858   1.0000
   7.700   1.0733   0.02038   0.01206  -0.0412   0.2759   1.0000
   7.800   1.0803   0.02067   0.01236  -0.0406   0.2665   1.0000
   7.900   1.0879   0.02098   0.01267  -0.0402   0.2565   1.0000
   8.000   1.0953   0.02130   0.01299  -0.0397   0.2465   1.0000
   8.100   1.1022   0.02163   0.01331  -0.0392   0.2363   1.0000
   8.200   1.1088   0.02197   0.01364  -0.0386   0.2252   1.0000
   8.300   1.1151   0.02232   0.01398  -0.0380   0.2140   1.0000
   8.400   1.1212   0.02267   0.01432  -0.0374   0.2032   1.0000
   8.500   1.1269   0.02305   0.01467  -0.0368   0.1905   1.0000
   8.600   1.1325   0.02344   0.01503  -0.0361   0.1792   1.0000
   8.700   1.1377   0.02385   0.01541  -0.0355   0.1664   1.0000
   8.800   1.1437   0.02427   0.01580  -0.0350   0.1552   1.0000
   8.900   1.1496   0.02474   0.01622  -0.0345   0.1419   1.0000
   9.000   1.1544   0.02521   0.01665  -0.0339   0.1291   1.0000
   9.100   1.1586   0.02571   0.01708  -0.0331   0.1161   1.0000
   9.200   1.1634   0.02624   0.01756  -0.0325   0.1048   1.0000
   9.300   1.1690   0.02675   0.01807  -0.0320   0.0956   1.0000
   9.400   1.1726   0.02735   0.01862  -0.0312   0.0839   1.0000
   9.500   1.1760   0.02807   0.01927  -0.0305   0.0712   1.0000
   9.600   1.1768   0.02874   0.01989  -0.0293   0.0623   1.0000
   9.700   1.1784   0.02965   0.02071  -0.0285   0.0518   1.0000
   9.800   1.1780   0.03043   0.02145  -0.0272   0.0455   1.0000
   9.900   1.1786   0.03126   0.02226  -0.0262   0.0415   1.0000
  10.000   1.1787   0.03203   0.02303  -0.0250   0.0385   1.0000
  10.100   1.1789   0.03281   0.02384  -0.0239   0.0360   1.0000
  10.200   1.1791   0.03354   0.02458  -0.0229   0.0346   1.0000
  10.300   1.1772   0.03424   0.02532  -0.0215   0.0331   1.0000
  10.400   1.1787   0.03516   0.02625  -0.0210   0.0318   1.0000
  10.500   1.1788   0.03598   0.02715  -0.0202   0.0304   1.0000
  10.600   1.1802   0.03687   0.02808  -0.0197   0.0296   1.0000
  10.700   1.1785   0.03779   0.02902  -0.0189   0.0288   1.0000
  10.800   1.1783   0.03863   0.02993  -0.0181   0.0282   1.0000
  10.900   1.1777   0.03956   0.03092  -0.0174   0.0275   1.0000
  11.000   1.1796   0.04067   0.03209  -0.0175   0.0267   1.0000
  11.100   1.1790   0.04163   0.03308  -0.0170   0.0263   1.0000
  11.200   1.1781   0.04265   0.03415  -0.0165   0.0257   1.0000
  11.300   1.1782   0.04372   0.03529  -0.0162   0.0250   1.0000
  11.400   1.1786   0.04477   0.03640  -0.0159   0.0246   1.0000
  11.500   1.1779   0.04569   0.03738  -0.0154   0.0245   1.0000
  11.600   1.1771   0.04689   0.03860  -0.0152   0.0240   1.0000
  11.700   1.1772   0.04789   0.03965  -0.0149   0.0239   1.0000
  11.800   1.1782   0.04913   0.04092  -0.0151   0.0235   1.0000
  11.900   1.1787   0.05029   0.04217  -0.0149   0.0231   1.0000
  12.000   1.1789   0.05138   0.04332  -0.0147   0.0228   1.0000
  12.100   1.1774   0.05237   0.04437  -0.0141   0.0226   1.0000
  12.200   1.1783   0.05362   0.04567  -0.0142   0.0221   1.0000
  12.300   1.1789   0.05478   0.04689  -0.0141   0.0219   1.0000
  12.400   1.1783   0.05592   0.04806  -0.0138   0.0217   1.0000
  12.500   1.1795   0.05711   0.04927  -0.0139   0.0215   1.0000
  12.600   1.1803   0.05828   0.05047  -0.0139   0.0212   1.0000
  12.700   1.1805   0.05953   0.05183  -0.0137   0.0209   1.0000
  12.800   1.1823   0.06065   0.05301  -0.0137   0.0209   1.0000
  12.900   1.1819   0.06200   0.05445  -0.0136   0.0205   1.0000
  13.000   1.1826   0.06315   0.05566  -0.0134   0.0204   1.0000
  13.100   1.1829   0.06457   0.05715  -0.0136   0.0200   1.0000
  13.200   1.1821   0.06577   0.05840  -0.0133   0.0199   1.0000
  13.300   1.1836   0.06710   0.05980  -0.0136   0.0198   1.0000
  13.400   1.1821   0.06832   0.06106  -0.0133   0.0196   1.0000
  13.500   1.1834   0.06966   0.06246  -0.0135   0.0195   1.0000
  13.600   1.1837   0.07088   0.06368  -0.0135   0.0193   1.0000
  13.700   1.1836   0.07229   0.06515  -0.0137   0.0193   1.0000
  13.800   1.1818   0.07400   0.06699  -0.0140   0.0192   1.0000
  13.900   1.1774   0.07601   0.06912  -0.0144   0.0190   1.0000
  14.000   1.1761   0.07755   0.07075  -0.0147   0.0190   1.0000
  14.100   1.1740   0.07926   0.07255  -0.0150   0.0190   1.0000
  14.200   1.1703   0.08150   0.07492  -0.0159   0.0188   1.0000
  14.300   1.1669   0.08345   0.07696  -0.0166   0.0188   1.0000
  14.400   1.1628   0.08564   0.07926  -0.0175   0.0187   1.0000
  14.500   1.1593   0.08779   0.08150  -0.0184   0.0187   1.0000
  14.600   1.1545   0.08984   0.08364  -0.0191   0.0186   1.0000
  14.700   1.1508   0.09204   0.08592  -0.0200   0.0187   1.0000
  14.800   1.1448   0.09461   0.08859  -0.0212   0.0186   1.0000
  14.900   1.1416   0.09708   0.09116  -0.0227   0.0187   1.0000
  15.000   1.1355   0.09953   0.09369  -0.0237   0.0187   1.0000
  15.100   1.1295   0.10224   0.09649  -0.0252   0.0186   1.0000
  15.200   1.1256   0.10475   0.09907  -0.0265   0.0188   1.0000
  15.300   1.1176   0.10787   0.10229  -0.0283   0.0187   1.0000
  15.400   1.1117   0.11106   0.10557  -0.0304   0.0186   1.0000
  15.500   1.1065   0.11407   0.10866  -0.0324   0.0187   1.0000
  15.600   1.1002   0.11690   0.11156  -0.0338   0.0188   1.0000
  15.700   1.0940   0.11981   0.11453  -0.0355   0.0189   1.0000
  15.800   1.0888   0.12305   0.11784  -0.0377   0.0189   1.0000
  15.900   1.0844   0.12591   0.12076  -0.0395   0.0190   1.0000
  16.000   1.0755   0.13021   0.12513  -0.0424   0.0190   1.0000
