  
       XFOIL         Version 6.99
  
 Calculated polar for: NACA 0010                                       
  
 1 1 Reynolds number fixed          Mach number fixed         
  
 xtrf =   1.000 (top)        1.000 (bottom)  
 Mach =   0.030     Re =     0.050 e 6     Ncrit =   6.000
  
   alpha    CL        CD       CDp       CM     Top_Xtr  Bot_Xtr
  ------ -------- --------- --------- -------- -------- --------
 -15.000  -0.5073   0.16573   0.15862   0.0167   1.0000   0.1379
 -14.900  -0.5059   0.16476   0.15765   0.0165   1.0000   0.1398
 -14.800  -0.5060   0.16400   0.15688   0.0161   1.0000   0.1418
 -14.700  -0.5080   0.16354   0.15642   0.0156   1.0000   0.1436
 -14.600  -0.5125   0.16351   0.15639   0.0149   1.0000   0.1450
 -14.500  -0.5181   0.16365   0.15653   0.0142   1.0000   0.1457
 -14.400  -0.5237   0.16374   0.15663   0.0136   1.0000   0.1461
 -14.300  -0.5294   0.16381   0.15670   0.0130   1.0000   0.1463
 -14.200  -0.5351   0.16385   0.15675   0.0125   1.0000   0.1465
 -14.100  -0.5241   0.16035   0.15325   0.0125   1.0000   0.1472
 -14.000  -0.5134   0.15743   0.15029   0.0127   1.0000   0.1482
 -13.900  -0.5074   0.15560   0.14845   0.0128   1.0000   0.1495
 -13.800  -0.5032   0.15420   0.14704   0.0128   1.0000   0.1513
 -13.700  -0.5014   0.15317   0.14599   0.0127   1.0000   0.1534
 -13.600  -0.5018   0.15241   0.14522   0.0125   1.0000   0.1556
 -13.500  -0.5048   0.15196   0.14478   0.0121   1.0000   0.1576
 -13.400  -0.5110   0.15192   0.14474   0.0116   1.0000   0.1592
 -13.300  -0.5182   0.15196   0.14478   0.0111   1.0000   0.1600
 -13.200  -0.5244   0.15168   0.14451   0.0105   1.0000   0.1604
 -13.100  -0.5295   0.15106   0.14389   0.0099   1.0000   0.1607
 -13.000  -0.5337   0.15021   0.14305   0.0092   1.0000   0.1609
 -12.900  -0.5368   0.14913   0.14198   0.0086   1.0000   0.1610
 -12.800  -0.5195   0.14574   0.13857   0.0095   1.0000   0.1626
 -12.700  -0.5180   0.14429   0.13711   0.0092   1.0000   0.1629
 -12.600  -0.5212   0.14318   0.13601   0.0086   1.0000   0.1625
 -12.500  -0.5398   0.14339   0.13624   0.0067   1.0000   0.1611
 -12.400  -0.5356   0.14149   0.13433   0.0066   1.0000   0.1609
 -12.300  -0.5313   0.13148   0.12420   0.0030   1.0000   0.0987
 -12.200  -0.5328   0.12967   0.12239   0.0024   1.0000   0.0972
 -12.100  -0.5362   0.12764   0.12036   0.0016   1.0000   0.0955
 -12.000  -0.5612   0.12286   0.11563  -0.0027   1.0000   0.0901
 -11.900  -0.5597   0.12124   0.11401  -0.0029   1.0000   0.0898
 -11.800  -0.5593   0.11954   0.11231  -0.0031   1.0000   0.0894
 -11.700  -0.5597   0.11776   0.11053  -0.0035   1.0000   0.0891
 -11.600  -0.5613   0.11584   0.10861  -0.0041   1.0000   0.0889
 -11.500  -0.5638   0.11381   0.10659  -0.0047   1.0000   0.0887
 -11.400  -0.5666   0.11172   0.10450  -0.0054   1.0000   0.0886
 -11.300  -0.5699   0.10954   0.10233  -0.0062   1.0000   0.0885
 -11.200  -0.5735   0.10728   0.10009  -0.0070   1.0000   0.0884
 -11.100  -0.5775   0.10494   0.09776  -0.0079   1.0000   0.0883
 -11.000  -0.5819   0.10250   0.09533  -0.0089   1.0000   0.0883
 -10.900  -0.5865   0.09998   0.09282  -0.0098   1.0000   0.0881
 -10.800  -0.5915   0.09735   0.09020  -0.0109   1.0000   0.0880
 -10.700  -0.5973   0.09455   0.08742  -0.0120   1.0000   0.0878
 -10.600  -0.6038   0.09158   0.08446  -0.0133   1.0000   0.0875
 -10.500  -0.6112   0.08834   0.08124  -0.0148   1.0000   0.0871
 -10.400  -0.6202   0.08477   0.07767  -0.0166   1.0000   0.0865
 -10.300  -0.6316   0.08090   0.07381  -0.0187   1.0000   0.0858
 -10.200  -0.6464   0.07673   0.06964  -0.0211   1.0000   0.0847
 -10.100  -0.6680   0.07194   0.06483  -0.0240   1.0000   0.0829
 -10.000  -0.7528   0.06300   0.05559  -0.0288   1.0000   0.0771
  -9.900  -0.7617   0.06114   0.05367  -0.0283   1.0000   0.0770
  -9.800  -0.7694   0.05926   0.05172  -0.0278   1.0000   0.0770
  -9.700  -0.7767   0.05729   0.04966  -0.0273   1.0000   0.0769
  -9.600  -0.7833   0.05531   0.04758  -0.0268   1.0000   0.0769
  -9.500  -0.7891   0.05335   0.04550  -0.0262   1.0000   0.0769
  -9.400  -0.7944   0.05137   0.04340  -0.0256   1.0000   0.0770
  -9.300  -0.7991   0.04944   0.04131  -0.0249   1.0000   0.0772
  -9.200  -0.8035   0.04751   0.03920  -0.0242   1.0000   0.0774
  -9.100  -0.8009   0.04593   0.03764  -0.0238   1.0000   0.0782
  -9.000  -0.7970   0.04468   0.03639  -0.0234   1.0000   0.0791
  -8.900  -0.7916   0.04368   0.03538  -0.0231   1.0000   0.0803
  -8.800  -0.7882   0.04253   0.03419  -0.0226   1.0000   0.0815
  -8.700  -0.7865   0.04115   0.03271  -0.0220   1.0000   0.0824
  -8.600  -0.7851   0.03969   0.03112  -0.0214   1.0000   0.0833
  -8.500  -0.7837   0.03819   0.02948  -0.0208   1.0000   0.0841
  -8.400  -0.7819   0.03668   0.02780  -0.0202   1.0000   0.0849
  -8.300  -0.7797   0.03518   0.02612  -0.0195   1.0000   0.0856
  -8.200  -0.7768   0.03371   0.02447  -0.0189   1.0000   0.0862
  -8.100  -0.7733   0.03230   0.02287  -0.0182   1.0000   0.0870
  -8.000  -0.7694   0.03095   0.02131  -0.0176   1.0000   0.0879
  -7.900  -0.7652   0.02970   0.01982  -0.0169   1.0000   0.0891
  -7.800  -0.7611   0.02854   0.01836  -0.0161   1.0000   0.0905
  -7.700  -0.7535   0.02756   0.01747  -0.0159   1.0000   0.0921
  -7.600  -0.7462   0.02677   0.01667  -0.0156   1.0000   0.0939
  -7.500  -0.7390   0.02595   0.01581  -0.0151   1.0000   0.0958
  -7.400  -0.7318   0.02508   0.01484  -0.0147   1.0000   0.0975
  -7.300  -0.7243   0.02418   0.01380  -0.0142   1.0000   0.0991
  -7.200  -0.7165   0.02328   0.01272  -0.0138   1.0000   0.1007
  -7.100  -0.7085   0.02241   0.01167  -0.0133   1.0000   0.1024
  -7.000  -0.7003   0.02158   0.01070  -0.0129   1.0000   0.1045
  -6.900  -0.6918   0.02086   0.01007  -0.0126   1.0000   0.1069
  -6.800  -0.6836   0.02025   0.00946  -0.0122   1.0000   0.1099
  -6.700  -0.6752   0.01960   0.00875  -0.0118   1.0000   0.1132
  -6.600  -0.6664   0.01893   0.00792  -0.0114   1.0000   0.1165
  -6.500  -0.6573   0.01821   0.00719  -0.0110   1.0000   0.1195
  -6.400  -0.6485   0.01755   0.00659  -0.0107   1.0000   0.1226
  -6.300  -0.6395   0.01691   0.00593  -0.0103   1.0000   0.1262
  -6.200  -0.6303   0.01629   0.00518  -0.0099   1.0000   0.1309
  -6.100  -0.6220   0.01565   0.00462  -0.0095   1.0000   0.1357
  -6.000  -0.6138   0.01510   0.00408  -0.0090   1.0000   0.1420
  -5.900  -0.6054   0.01450   0.00349  -0.0086   1.0000   0.1489
  -5.800  -0.5975   0.01392   0.00295  -0.0081   1.0000   0.1566
  -5.700  -0.5894   0.01331   0.00239  -0.0076   1.0000   0.1650
  -5.600  -0.5813   0.01274   0.00182  -0.0071   1.0000   0.1760
  -5.500  -0.5740   0.01216   0.00134  -0.0065   1.0000   0.1880
  -5.400  -0.5668   0.01160   0.00088  -0.0060   1.0000   0.2026
  -5.300  -0.5596   0.01106   0.00042  -0.0054   1.0000   0.2196
  -5.200  -0.5529   0.01053   0.00005  -0.0048   1.0000   0.2384
  -5.100  -0.5463   0.01004  -0.00032  -0.0042   1.0000   0.2600
  -5.000  -0.5398   0.00959  -0.00064  -0.0035   1.0000   0.2838
  -4.900  -0.5334   0.00917  -0.00093  -0.0028   1.0000   0.3101
  -4.800  -0.5272   0.00878  -0.00116  -0.0020   1.0000   0.3358
  -4.700  -0.5209   0.00842  -0.00137  -0.0012   1.0000   0.3625
  -4.600  -0.5144   0.00810  -0.00158  -0.0004   1.0000   0.3890
  -4.500  -0.5079   0.00780  -0.00177   0.0005   1.0000   0.4149
  -4.400  -0.5011   0.00752  -0.00193   0.0014   1.0000   0.4392
  -4.300  -0.4942   0.00727  -0.00211   0.0023   1.0000   0.4637
  -4.200  -0.4872   0.00703  -0.00225   0.0032   1.0000   0.4860
  -4.100  -0.4803   0.00681  -0.00243   0.0042   1.0000   0.5087
  -4.000  -0.4732   0.00660  -0.00255   0.0052   1.0000   0.5297
  -3.900  -0.4660   0.00641  -0.00268   0.0062   1.0000   0.5507
  -3.800  -0.4588   0.00623  -0.00280   0.0071   1.0000   0.5716
  -3.700  -0.4513   0.00606  -0.00290   0.0082   1.0000   0.5911
  -3.600  -0.4438   0.00591  -0.00299   0.0092   1.0000   0.6106
  -3.500  -0.4363   0.00576  -0.00310   0.0102   1.0000   0.6300
  -3.400  -0.4287   0.00563  -0.00319   0.0112   1.0000   0.6487
  -3.300  -0.4207   0.00551  -0.00327   0.0122   1.0000   0.6662
  -3.200  -0.4127   0.00540  -0.00334   0.0132   1.0000   0.6834
  -3.100  -0.4044   0.00530  -0.00343   0.0141   1.0000   0.7003
  -3.000  -0.3961   0.00521  -0.00350   0.0151   1.0000   0.7167
  -2.900  -0.3876   0.00512  -0.00356   0.0160   1.0000   0.7328
  -2.800  -0.3788   0.00505  -0.00362   0.0169   1.0000   0.7485
  -2.700  -0.3696   0.00499  -0.00367   0.0177   1.0000   0.7637
  -2.600  -0.3601   0.00494  -0.00372   0.0184   1.0000   0.7787
  -2.500  -0.3502   0.00489  -0.00377   0.0190   1.0000   0.7932
  -2.400  -0.3397   0.00485  -0.00382   0.0196   1.0000   0.8076
  -2.300  -0.3287   0.00482  -0.00388   0.0199   1.0000   0.8216
  -2.200  -0.3172   0.00479  -0.00393   0.0202   1.0000   0.8355
  -2.100  -0.3052   0.00477  -0.00398   0.0204   1.0000   0.8492
  -2.000  -0.2909   0.00477  -0.00401   0.0201   1.0000   0.8618
  -1.900  -0.2746   0.00478  -0.00403   0.0194   1.0000   0.8737
  -1.800  -0.2581   0.00479  -0.00407   0.0186   1.0000   0.8854
  -1.700  -0.2420   0.00478  -0.00412   0.0178   1.0000   0.8973
  -1.600  -0.2246   0.00477  -0.00419   0.0167   1.0000   0.9088
  -1.500  -0.2022   0.00480  -0.00421   0.0146   1.0000   0.9182
  -1.400  -0.1822   0.00478  -0.00427   0.0129   1.0000   0.9285
  -1.300  -0.1599   0.00477  -0.00433   0.0107   1.0000   0.9379
  -1.200  -0.1359   0.00476  -0.00439   0.0081   1.0000   0.9461
  -1.100  -0.1160   0.00471  -0.00448   0.0061   1.0000   0.9559
  -1.000  -0.0913   0.00469  -0.00454   0.0033   1.0000   0.9636
  -0.900  -0.0700   0.00463  -0.00462   0.0010   1.0000   0.9723
  -0.800  -0.0476   0.00457  -0.00470  -0.0016   1.0000   0.9805
  -0.700  -0.0249   0.00451  -0.00478  -0.0042   1.0000   0.9882
  -0.600  -0.0026   0.00442  -0.00488  -0.0068   1.0000   0.9960
  -0.500   0.0094   0.00435  -0.00495  -0.0077   1.0000   1.0000
  -0.400   0.0083   0.00429  -0.00500  -0.0063   1.0000   1.0000
  -0.300   0.0067   0.00425  -0.00503  -0.0049   1.0000   1.0000
  -0.200   0.0048   0.00422  -0.00506  -0.0033   1.0000   1.0000
  -0.100   0.0024   0.00420  -0.00507  -0.0017   1.0000   1.0000
  -0.000  -0.0000   0.00419  -0.00508   0.0000   1.0000   1.0000
   0.100  -0.0025   0.00420  -0.00507   0.0017   1.0000   1.0000
   0.200  -0.0048   0.00422  -0.00506   0.0033   1.0000   1.0000
   0.300  -0.0068   0.00425  -0.00504   0.0049   1.0000   1.0000
   0.400  -0.0084   0.00429  -0.00500   0.0063   1.0000   1.0000
   0.500  -0.0095   0.00434  -0.00496   0.0077   1.0000   1.0000
   0.600   0.0028   0.00442  -0.00488   0.0068   0.9959   1.0000
   0.700   0.0250   0.00450  -0.00479   0.0042   0.9882   1.0000
   0.800   0.0478   0.00456  -0.00471   0.0015   0.9804   1.0000
   0.900   0.0702   0.00462  -0.00463  -0.0010   0.9722   1.0000
   1.000   0.0915   0.00468  -0.00455  -0.0033   0.9634   1.0000
   1.100   0.1163   0.00470  -0.00449  -0.0062   0.9558   1.0000
   1.200   0.1360   0.00475  -0.00440  -0.0081   0.9460   1.0000
   1.300   0.1600   0.00476  -0.00434  -0.0107   0.9377   1.0000
   1.400   0.1826   0.00477  -0.00429  -0.0130   0.9283   1.0000
   1.500   0.2024   0.00478  -0.00423  -0.0147   0.9180   1.0000
   1.600   0.2246   0.00475  -0.00420  -0.0167   0.9087   1.0000
   1.700   0.2421   0.00475  -0.00414  -0.0178   0.8972   1.0000
   1.800   0.2583   0.00476  -0.00409  -0.0186   0.8853   1.0000
   1.900   0.2746   0.00476  -0.00406  -0.0194   0.8734   1.0000
   2.000   0.2909   0.00474  -0.00403  -0.0201   0.8616   1.0000
   2.100   0.3054   0.00474  -0.00400  -0.0204   0.8491   1.0000
   2.200   0.3173   0.00476  -0.00396  -0.0202   0.8354   1.0000
   2.300   0.3288   0.00479  -0.00391  -0.0200   0.8215   1.0000
   2.400   0.3397   0.00482  -0.00385  -0.0196   0.8074   1.0000
   2.500   0.3502   0.00486  -0.00380  -0.0190   0.7931   1.0000
   2.600   0.3601   0.00490  -0.00376  -0.0184   0.7784   1.0000
   2.700   0.3696   0.00495  -0.00371  -0.0177   0.7635   1.0000
   2.800   0.3787   0.00501  -0.00365  -0.0168   0.7482   1.0000
   2.900   0.3875   0.00508  -0.00360  -0.0160   0.7326   1.0000
   3.000   0.3961   0.00516  -0.00353  -0.0151   0.7165   1.0000
   3.100   0.4044   0.00525  -0.00347  -0.0141   0.7001   1.0000
   3.200   0.4126   0.00535  -0.00338  -0.0132   0.6832   1.0000
   3.300   0.4207   0.00546  -0.00331  -0.0122   0.6660   1.0000
   3.400   0.4287   0.00558  -0.00324  -0.0112   0.6485   1.0000
   3.500   0.4363   0.00571  -0.00315  -0.0102   0.6297   1.0000
   3.600   0.4438   0.00586  -0.00304  -0.0092   0.6104   1.0000
   3.700   0.4512   0.00601  -0.00295  -0.0081   0.5910   1.0000
   3.800   0.4587   0.00617  -0.00286  -0.0071   0.5715   1.0000
   3.900   0.4659   0.00635  -0.00273  -0.0062   0.5508   1.0000
   4.000   0.4731   0.00654  -0.00260  -0.0052   0.5295   1.0000
   4.100   0.4802   0.00675  -0.00249  -0.0042   0.5086   1.0000
   4.200   0.4871   0.00696  -0.00231  -0.0032   0.4859   1.0000
   4.300   0.4941   0.00721  -0.00217  -0.0023   0.4636   1.0000
   4.400   0.5010   0.00746  -0.00199  -0.0014   0.4391   1.0000
   4.500   0.5078   0.00774  -0.00183  -0.0005   0.4147   1.0000
   4.600   0.5144   0.00803  -0.00164   0.0004   0.3891   1.0000
   4.700   0.5208   0.00835  -0.00144   0.0012   0.3624   1.0000
   4.800   0.5271   0.00871  -0.00123   0.0020   0.3358   1.0000
   4.900   0.5333   0.00910  -0.00100   0.0028   0.3102   1.0000
   5.000   0.5397   0.00951  -0.00071   0.0035   0.2839   1.0000
   5.100   0.5462   0.00997  -0.00039   0.0042   0.2600   1.0000
   5.200   0.5528   0.01046  -0.00002   0.0048   0.2384   1.0000
   5.300   0.5595   0.01099   0.00035   0.0054   0.2196   1.0000
   5.400   0.5667   0.01153   0.00081   0.0060   0.2023   1.0000
   5.500   0.5739   0.01209   0.00127   0.0065   0.1879   1.0000
   5.600   0.5811   0.01266   0.00174   0.0071   0.1759   1.0000
   5.700   0.5893   0.01323   0.00231   0.0076   0.1650   1.0000
   5.800   0.5974   0.01384   0.00287   0.0081   0.1566   1.0000
   5.900   0.6053   0.01442   0.00340   0.0086   0.1488   1.0000
   6.000   0.6137   0.01501   0.00400   0.0090   0.1419   1.0000
   6.100   0.6219   0.01557   0.00455   0.0095   0.1357   1.0000
   6.200   0.6302   0.01620   0.00512   0.0099   0.1310   1.0000
   6.300   0.6394   0.01682   0.00585   0.0103   0.1262   1.0000
   6.400   0.6483   0.01746   0.00651   0.0107   0.1226   1.0000
   6.500   0.6572   0.01812   0.00711   0.0111   0.1195   1.0000
   6.600   0.6662   0.01883   0.00783   0.0114   0.1165   1.0000
   6.700   0.6750   0.01951   0.00866   0.0118   0.1132   1.0000
   6.800   0.6834   0.02015   0.00937   0.0122   0.1099   1.0000
   6.900   0.6917   0.02077   0.00998   0.0126   0.1070   1.0000
   7.000   0.7002   0.02148   0.01061   0.0129   0.1045   1.0000
   7.100   0.7084   0.02230   0.01157   0.0133   0.1025   1.0000
   7.200   0.7164   0.02318   0.01263   0.0138   0.1007   1.0000
   7.300   0.7242   0.02408   0.01371   0.0142   0.0991   1.0000
   7.400   0.7316   0.02498   0.01474   0.0147   0.0975   1.0000
   7.500   0.7388   0.02585   0.01571   0.0151   0.0957   1.0000
   7.600   0.7460   0.02666   0.01658   0.0156   0.0939   1.0000
   7.700   0.7534   0.02746   0.01737   0.0159   0.0921   1.0000
   7.800   0.7608   0.02843   0.01826   0.0161   0.0905   1.0000
   7.900   0.7651   0.02960   0.01972   0.0169   0.0891   1.0000
   8.000   0.7692   0.03085   0.02121   0.0176   0.0879   1.0000
   8.100   0.7731   0.03219   0.02276   0.0182   0.0870   1.0000
   8.200   0.7766   0.03360   0.02437   0.0189   0.0863   1.0000
   8.300   0.7795   0.03507   0.02602   0.0195   0.0856   1.0000
   8.400   0.7817   0.03657   0.02770   0.0202   0.0849   1.0000
   8.500   0.7835   0.03809   0.02938   0.0208   0.0842   1.0000
   8.600   0.7849   0.03959   0.03103   0.0214   0.0833   1.0000
   8.700   0.7863   0.04105   0.03261   0.0220   0.0824   1.0000
   8.800   0.7878   0.04245   0.03411   0.0226   0.0815   1.0000
   8.900   0.7907   0.04367   0.03538   0.0231   0.0804   1.0000
   9.000   0.7962   0.04464   0.03636   0.0235   0.0792   1.0000
   9.100   0.8009   0.04580   0.03751   0.0238   0.0781   1.0000
   9.200   0.8034   0.04740   0.03909   0.0242   0.0774   1.0000
   9.300   0.7989   0.04932   0.04119   0.0249   0.0772   1.0000
   9.400   0.7942   0.05127   0.04330   0.0256   0.0770   1.0000
   9.500   0.7890   0.05323   0.04539   0.0262   0.0770   1.0000
   9.600   0.7832   0.05520   0.04748   0.0268   0.0769   1.0000
   9.700   0.7765   0.05718   0.04956   0.0273   0.0769   1.0000
   9.800   0.7695   0.05914   0.05160   0.0278   0.0770   1.0000
   9.900   0.7614   0.06104   0.05357   0.0283   0.0770   1.0000
  10.000   0.7526   0.06289   0.05548   0.0288   0.0771   1.0000
  10.100   0.7437   0.06479   0.05743   0.0291   0.0772   1.0000
  10.200   0.7347   0.06678   0.05946   0.0291   0.0773   1.0000
  10.300   0.7255   0.06888   0.06160   0.0290   0.0774   1.0000
  10.400   0.7877   0.08100   0.07356   0.0197   0.0764   1.0000
  10.500   0.7799   0.08347   0.07606   0.0184   0.0766   1.0000
  10.600   0.7727   0.08606   0.07866   0.0169   0.0768   1.0000
  10.700   0.7660   0.08877   0.08139   0.0152   0.0770   1.0000
  10.800   0.7600   0.09154   0.08415   0.0135   0.0771   1.0000
  10.900   0.7548   0.09435   0.08696   0.0117   0.0773   1.0000
  11.000   0.7503   0.09716   0.08978   0.0100   0.0774   1.0000
  11.400   0.6899   0.12022   0.11266  -0.0086   0.0860   1.0000
  11.500   0.6888   0.12245   0.11488  -0.0096   0.0864   1.0000
  11.600   0.6880   0.12463   0.11705  -0.0105   0.0868   1.0000
  11.700   0.6874   0.12675   0.11916  -0.0114   0.0872   1.0000
  11.800   0.6870   0.12884   0.12124  -0.0123   0.0875   1.0000
  11.900   0.6867   0.13090   0.12329  -0.0131   0.0877   1.0000
  12.000   0.6866   0.13293   0.12532  -0.0140   0.0879   1.0000
  12.100   0.6868   0.13493   0.12731  -0.0148   0.0881   1.0000
  12.200   0.6872   0.13691   0.12928  -0.0155   0.0883   1.0000
  12.300   0.6879   0.13885   0.13122  -0.0162   0.0886   1.0000
  12.400   0.6891   0.14075   0.13311  -0.0168   0.0889   1.0000
  12.500   0.6914   0.14256   0.13493  -0.0172   0.0893   1.0000
  12.600   0.6964   0.14421   0.13659  -0.0170   0.0899   1.0000
