  
       XFOIL         Version 6.99
  
 Calculated polar for: Selig S-1223                                    
  
 1 1 Reynolds number fixed          Mach number fixed         
  
 xtrf =   1.000 (top)        1.000 (bottom)  
 Mach =   0.030     Re =     0.050 e 6     Ncrit =   6.000
  
   alpha    CL        CD       CDp       CM     Top_Xtr  Bot_Xtr
  ------ -------- --------- --------- -------- -------- --------
  -1.800   0.3688   0.05595   0.04981  -0.1277   0.7216   0.1025
  -1.700   0.4182   0.05172   0.04538  -0.1399   0.7166   0.0902
  -1.600   0.5283   0.04359   0.03674  -0.1682   0.7113   0.0810
  -1.500   0.6889   0.03465   0.02655  -0.2065   0.7025   0.0800
  -1.400   0.7520   0.03216   0.02335  -0.2184   0.6934   0.0828
  -1.300   0.7869   0.03118   0.02203  -0.2234   0.6855   0.0855
  -1.200   0.8188   0.03036   0.02090  -0.2276   0.6777   0.0889
  -1.100   0.8492   0.02971   0.01990  -0.2315   0.6702   0.0927
  -1.000   0.8720   0.02937   0.01944  -0.2337   0.6628   0.0967
  -0.900   0.8937   0.02906   0.01897  -0.2358   0.6558   0.1013
  -0.800   0.9160   0.02879   0.01856  -0.2379   0.6492   0.1072
  -0.700   0.9380   0.02856   0.01820  -0.2400   0.6431   0.1148
  -0.600   0.9605   0.02837   0.01791  -0.2422   0.6372   0.1256
  -0.500   0.9800   0.02828   0.01782  -0.2438   0.6311   0.1404
  -0.400   1.0009   0.02822   0.01781  -0.2457   0.6255   0.1680
  -0.300   1.0238   0.02830   0.01798  -0.2479   0.6203   0.2364
  -0.200   1.0377   0.02868   0.01843  -0.2483   0.6149   0.2918
  -0.100   1.0512   0.02904   0.01879  -0.2485   0.6104   0.3324
   0.000   1.0621   0.02938   0.01916  -0.2482   0.6059   0.3641
   0.100   1.0735   0.02964   0.01941  -0.2479   0.6019   0.3894
   0.200   1.0849   0.02982   0.01956  -0.2477   0.5977   0.4072
   0.300   1.1000   0.02994   0.01957  -0.2484   0.5939   0.4225
   0.400   1.1133   0.03007   0.01963  -0.2487   0.5898   0.4336
   0.500   1.1305   0.03016   0.01956  -0.2498   0.5863   0.4454
   0.600   1.1435   0.03030   0.01964  -0.2502   0.5823   0.4542
   0.700   1.1591   0.03038   0.01960  -0.2510   0.5790   0.4631
   0.800   1.1719   0.03053   0.01969  -0.2513   0.5754   0.4712
   0.900   1.1866   0.03066   0.01973  -0.2520   0.5721   0.4796
   1.000   1.2017   0.03078   0.01976  -0.2528   0.5690   0.4883
   1.100   1.2139   0.03095   0.01989  -0.2530   0.5656   0.4962
   1.200   1.2286   0.03108   0.01993  -0.2537   0.5627   0.5052
   1.300   1.2422   0.03126   0.02005  -0.2542   0.5598   0.5141
   1.400   1.2545   0.03144   0.02020  -0.2544   0.5567   0.5231
   1.500   1.2689   0.03158   0.02026  -0.2550   0.5541   0.5335
   1.600   1.2809   0.03177   0.02043  -0.2552   0.5514   0.5433
   1.700   1.2929   0.03198   0.02064  -0.2554   0.5485   0.5536
   1.800   1.3067   0.03214   0.02074  -0.2559   0.5460   0.5658
   1.900   1.3179   0.03232   0.02090  -0.2559   0.5437   0.5773
   2.000   1.3294   0.03256   0.02117  -0.2560   0.5409   0.5904
   2.100   1.3408   0.03274   0.02134  -0.2560   0.5386   0.6040
   2.200   1.3543   0.03289   0.02145  -0.2564   0.5365   0.6204
   2.300   1.3632   0.03314   0.02176  -0.2560   0.5340   0.6360
   2.400   1.3734   0.03336   0.02202  -0.2559   0.5316   0.6540
   2.500   1.3836   0.03351   0.02218  -0.2556   0.5295   0.6739
   2.600   1.3963   0.03364   0.02231  -0.2558   0.5277   0.6993
   2.700   1.4032   0.03390   0.02269  -0.2550   0.5253   0.7237
   2.800   1.4096   0.03404   0.02292  -0.2540   0.5232   0.7544
   2.900   1.4160   0.03410   0.02303  -0.2530   0.5214   0.7957
   3.000   1.4184   0.03399   0.02299  -0.2510   0.5200   0.8729
   3.100   1.4283   0.03426   0.02322  -0.2510   0.5178   1.0000
   3.200   1.4411   0.03472   0.02362  -0.2517   0.5154   1.0000
   3.300   1.4574   0.03512   0.02393  -0.2529   0.5133   1.0000
   3.400   1.4700   0.03542   0.02410  -0.2532   0.5116   1.0000
   3.500   1.4795   0.03583   0.02449  -0.2531   0.5096   1.0000
   3.600   1.4904   0.03632   0.02497  -0.2532   0.5072   1.0000
   3.700   1.5012   0.03670   0.02531  -0.2533   0.5053   1.0000
   3.800   1.5137   0.03704   0.02557  -0.2536   0.5037   1.0000
   3.900   1.5247   0.03738   0.02585  -0.2536   0.5020   1.0000
   4.000   1.5309   0.03791   0.02643  -0.2529   0.4999   1.0000
   4.100   1.5409   0.03838   0.02689  -0.2528   0.4978   1.0000
   4.200   1.5520   0.03876   0.02723  -0.2529   0.4961   1.0000
   4.300   1.5643   0.03907   0.02748  -0.2531   0.4947   1.0000
   4.400   1.5712   0.03955   0.02798  -0.2525   0.4929   1.0000
   4.500   1.5788   0.04014   0.02862  -0.2521   0.4908   1.0000
   4.600   1.5853   0.04057   0.02905  -0.2513   0.4890   1.0000
   4.700   1.5976   0.04098   0.02943  -0.2516   0.4874   1.0000
   4.800   1.6084   0.04129   0.02968  -0.2516   0.4861   1.0000
   4.900   1.6148   0.04192   0.03038  -0.2510   0.4842   1.0000
   5.000   1.6211   0.04255   0.03107  -0.2503   0.4822   1.0000
   5.100   1.6262   0.04301   0.03155  -0.2493   0.4806   1.0000
   5.200   1.6379   0.04344   0.03196  -0.2495   0.4790   1.0000
   5.300   1.6497   0.04375   0.03222  -0.2497   0.4777   1.0000
   5.400   1.6528   0.04446   0.03301  -0.2485   0.4758   1.0000
   5.500   1.6563   0.04517   0.03381  -0.2474   0.4739   1.0000
   5.600   1.6616   0.04570   0.03437  -0.2465   0.4723   1.0000
   5.700   1.6736   0.04616   0.03482  -0.2468   0.4708   1.0000
   5.800   1.6855   0.04652   0.03515  -0.2469   0.4695   1.0000
   5.900   1.6887   0.04729   0.03600  -0.2458   0.4676   1.0000
   6.000   1.6875   0.04812   0.03692  -0.2440   0.4659   1.0000
   6.100   1.6935   0.04882   0.03767  -0.2434   0.4642   1.0000
   6.200   1.6996   0.04928   0.03814  -0.2426   0.4628   1.0000
   6.300   1.7138   0.04964   0.03847  -0.2432   0.4614   1.0000
   6.400   1.7175   0.05034   0.03923  -0.2421   0.4598   1.0000
   6.500   1.7137   0.05154   0.04058  -0.2401   0.4579   1.0000
   6.600   1.7164   0.05238   0.04149  -0.2390   0.4560   1.0000
   6.700   1.7228   0.05291   0.04203  -0.2384   0.4545   1.0000
   6.800   1.7342   0.05320   0.04230  -0.2384   0.4532   1.0000
   6.900   1.7389   0.05384   0.04298  -0.2375   0.4519   1.0000
   7.000   1.7236   0.05541   0.04471  -0.2338   0.4498   1.0000
   7.100   1.7261   0.05661   0.04601  -0.2330   0.4478   1.0000
   7.200   1.7249   0.05721   0.04664  -0.2311   0.4464   1.0000
   7.300   1.7424   0.05752   0.04693  -0.2322   0.4450   1.0000
   7.400   1.7419   0.05831   0.04778  -0.2305   0.4434   1.0000
   7.500   1.7135   0.06072   0.05038  -0.2255   0.4412   1.0000
   7.600   1.7113   0.06204   0.05178  -0.2241   0.4391   1.0000
   7.700   1.7239   0.06267   0.05244  -0.2246   0.4376   1.0000
   7.800   1.7276   0.06287   0.05262  -0.2232   0.4365   1.0000
   7.900   1.6846   0.06676   0.05674  -0.2174   0.4338   1.0000
   8.000   1.6287   0.07156   0.06174  -0.2108   0.4308   1.0000
   8.100   1.6364   0.07191   0.06210  -0.2102   0.4294   1.0000
   8.200   1.6598   0.07127   0.06143  -0.2112   0.4284   1.0000
   8.300   1.5156   0.08635   0.07691  -0.2026   0.4204   1.0000
   8.400   1.5372   0.08537   0.07590  -0.2027   0.4198   1.0000
