  
       XFOIL         Version 6.99
  
 Calculated polar for: sd7037                                          
  
 1 1 Reynolds number fixed          Mach number fixed         
  
 xtrf =   1.000 (top)        1.000 (bottom)  
 Mach =   0.030     Re =     0.200 e 6     Ncrit =   6.000
  
   alpha    CL        CD       CDp       CM     Top_Xtr  Bot_Xtr
  ------ -------- --------- --------- -------- -------- --------
  -2.000   0.1462   0.01067   0.00416  -0.0819   0.8912   0.3535
  -1.900   0.1572   0.01042   0.00408  -0.0818   0.8881   0.4059
  -1.800   0.1686   0.01021   0.00400  -0.0818   0.8855   0.4508
  -1.700   0.1778   0.01004   0.00396  -0.0813   0.8809   0.4931
  -1.600   0.1874   0.00986   0.00393  -0.0809   0.8765   0.5386
  -1.500   0.1976   0.00966   0.00388  -0.0805   0.8730   0.5876
  -1.400   0.2079   0.00946   0.00383  -0.0801   0.8701   0.6370
  -1.300   0.2159   0.00933   0.00384  -0.0792   0.8646   0.6798
  -1.200   0.2249   0.00919   0.00381  -0.0785   0.8601   0.7201
  -1.100   0.2344   0.00906   0.00376  -0.0778   0.8566   0.7572
  -1.000   0.2431   0.00897   0.00374  -0.0769   0.8519   0.7895
  -0.900   0.2518   0.00888   0.00370  -0.0760   0.8467   0.8206
  -0.800   0.2618   0.00879   0.00364  -0.0754   0.8426   0.8506
  -0.700   0.2730   0.00871   0.00357  -0.0750   0.8381   0.8813
  -0.600   0.2860   0.00864   0.00352  -0.0751   0.8327   0.9110
  -0.500   0.3036   0.00856   0.00342  -0.0762   0.8283   0.9411
  -0.400   0.3234   0.00849   0.00330  -0.0778   0.8238   0.9689
  -0.300   0.3422   0.00844   0.00321  -0.0793   0.8180   0.9953
  -0.200   0.3544   0.00842   0.00313  -0.0794   0.8124   1.0000
  -0.100   0.3645   0.00842   0.00308  -0.0792   0.8061   1.0000
   0.000   0.3749   0.00842   0.00303  -0.0789   0.7997   1.0000
   0.100   0.3855   0.00842   0.00297  -0.0787   0.7936   1.0000
   0.200   0.3958   0.00843   0.00293  -0.0784   0.7865   1.0000
   0.300   0.4065   0.00844   0.00288  -0.0782   0.7803   1.0000
   0.400   0.4168   0.00846   0.00285  -0.0780   0.7728   1.0000
   0.600   0.4378   0.00850   0.00278  -0.0775   0.7585   1.0000
   0.800   0.4588   0.00855   0.00273  -0.0771   0.7437   1.0000
   1.000   0.4798   0.00863   0.00269  -0.0767   0.7283   1.0000
   1.100   0.4903   0.00867   0.00267  -0.0764   0.7209   1.0000
   1.200   0.5007   0.00871   0.00267  -0.0762   0.7125   1.0000
   1.300   0.5112   0.00877   0.00267  -0.0760   0.7049   1.0000
   1.400   0.5216   0.00882   0.00267  -0.0758   0.6964   1.0000
   1.500   0.5320   0.00887   0.00267  -0.0756   0.6884   1.0000
   1.600   0.5424   0.00893   0.00268  -0.0754   0.6802   1.0000
   1.700   0.5528   0.00899   0.00269  -0.0751   0.6719   1.0000
   1.800   0.5632   0.00906   0.00270  -0.0749   0.6636   1.0000
   1.900   0.5735   0.00912   0.00272  -0.0747   0.6551   1.0000
   2.000   0.5838   0.00920   0.00274  -0.0745   0.6471   1.0000
   2.100   0.5942   0.00926   0.00277  -0.0743   0.6382   1.0000
   2.200   0.6044   0.00934   0.00280  -0.0741   0.6301   1.0000
   2.300   0.6148   0.00941   0.00284  -0.0739   0.6214   1.0000
   2.400   0.6250   0.00949   0.00287  -0.0736   0.6131   1.0000
   2.500   0.6353   0.00957   0.00290  -0.0734   0.6044   1.0000
   2.600   0.6456   0.00965   0.00294  -0.0732   0.5959   1.0000
   2.700   0.6557   0.00974   0.00298  -0.0730   0.5876   1.0000
   2.800   0.6660   0.00982   0.00303  -0.0728   0.5786   1.0000
   2.900   0.6762   0.00991   0.00308  -0.0726   0.5706   1.0000
   3.000   0.6864   0.01000   0.00313  -0.0724   0.5615   1.0000
   3.100   0.6965   0.01009   0.00320  -0.0722   0.5530   1.0000
   3.200   0.7066   0.01018   0.00325  -0.0719   0.5443   1.0000
   3.300   0.7168   0.01028   0.00331  -0.0717   0.5356   1.0000
   3.500   0.7370   0.01047   0.00344  -0.0713   0.5180   1.0000
   3.600   0.7470   0.01058   0.00350  -0.0711   0.5096   1.0000
   3.700   0.7571   0.01068   0.00357  -0.0709   0.5006   1.0000
   3.800   0.7671   0.01079   0.00365  -0.0706   0.4919   1.0000
   3.900   0.7770   0.01091   0.00372  -0.0704   0.4832   1.0000
   4.000   0.7871   0.01101   0.00382  -0.0702   0.4744   1.0000
   4.100   0.7970   0.01113   0.00390  -0.0700   0.4660   1.0000
   4.200   0.8070   0.01124   0.00399  -0.0698   0.4568   1.0000
   4.300   0.8169   0.01136   0.00408  -0.0695   0.4481   1.0000
   4.400   0.8267   0.01148   0.00417  -0.0693   0.4392   1.0000
   4.500   0.8367   0.01160   0.00426  -0.0691   0.4305   1.0000
   4.600   0.8463   0.01174   0.00436  -0.0688   0.4219   1.0000
   4.700   0.8563   0.01185   0.00446  -0.0686   0.4127   1.0000
   4.900   0.8757   0.01212   0.00469  -0.0682   0.3951   1.0000
   5.000   0.8855   0.01225   0.00480  -0.0679   0.3863   1.0000
   5.200   0.9048   0.01254   0.00504  -0.0674   0.3686   1.0000
   5.300   0.9143   0.01269   0.00516  -0.0672   0.3600   1.0000
   5.400   0.9240   0.01284   0.00528  -0.0670   0.3512   1.0000
   5.500   0.9336   0.01298   0.00541  -0.0667   0.3427   1.0000
   5.600   0.9430   0.01315   0.00555  -0.0664   0.3342   1.0000
   5.700   0.9526   0.01330   0.00570  -0.0662   0.3254   1.0000
   5.800   0.9619   0.01347   0.00584  -0.0659   0.3172   1.0000
   5.900   0.9715   0.01362   0.00599  -0.0657   0.3086   1.0000
   6.000   0.9808   0.01380   0.00614  -0.0654   0.3006   1.0000
   6.100   0.9901   0.01397   0.00629  -0.0652   0.2921   1.0000
   6.200   0.9995   0.01414   0.00645  -0.0649   0.2842   1.0000
   6.300   1.0087   0.01432   0.00661  -0.0646   0.2762   1.0000
   6.400   1.0181   0.01449   0.00678  -0.0644   0.2683   1.0000
   6.500   1.0270   0.01469   0.00695  -0.0640   0.2605   1.0000
   6.600   1.0364   0.01487   0.00714  -0.0638   0.2523   1.0000
   6.700   1.0452   0.01508   0.00732  -0.0635   0.2447   1.0000
   6.800   1.0544   0.01526   0.00750  -0.0632   0.2365   1.0000
   6.900   1.0632   0.01547   0.00769  -0.0629   0.2289   1.0000
   7.000   1.0723   0.01567   0.00788  -0.0626   0.2211   1.0000
   7.100   1.0811   0.01588   0.00808  -0.0623   0.2137   1.0000
   7.200   1.0900   0.01609   0.00827  -0.0620   0.2060   1.0000
   7.300   1.0987   0.01631   0.00848  -0.0616   0.1992   1.0000
   7.400   1.1075   0.01652   0.00869  -0.0613   0.1920   1.0000
   7.500   1.1161   0.01675   0.00891  -0.0610   0.1856   1.0000
   7.600   1.1249   0.01697   0.00914  -0.0607   0.1789   1.0000
   7.700   1.1332   0.01722   0.00938  -0.0603   0.1726   1.0000
   7.800   1.1420   0.01743   0.00960  -0.0600   0.1654   1.0000
   7.900   1.1500   0.01770   0.00984  -0.0596   0.1591   1.0000
   8.000   1.1586   0.01792   0.01007  -0.0593   0.1515   1.0000
   8.100   1.1665   0.01820   0.01032  -0.0588   0.1448   1.0000
   8.200   1.1748   0.01844   0.01056  -0.0585   0.1372   1.0000
   8.300   1.1826   0.01873   0.01082  -0.0581   0.1301   1.0000
   8.400   1.1905   0.01900   0.01108  -0.0577   0.1223   1.0000
   8.500   1.1984   0.01928   0.01134  -0.0573   0.1160   1.0000
   8.600   1.2062   0.01956   0.01161  -0.0569   0.1093   1.0000
   8.700   1.2138   0.01985   0.01191  -0.0564   0.1035   1.0000
   8.800   1.2215   0.02014   0.01220  -0.0560   0.0971   1.0000
   8.900   1.2288   0.02046   0.01250  -0.0555   0.0916   1.0000
   9.000   1.2362   0.02076   0.01280  -0.0551   0.0853   1.0000
   9.100   1.2431   0.02110   0.01312  -0.0546   0.0799   1.0000
   9.200   1.2505   0.02140   0.01343  -0.0541   0.0745   1.0000
   9.400   1.2641   0.02207   0.01411  -0.0531   0.0648   1.0000
   9.500   1.2700   0.02249   0.01449  -0.0524   0.0590   1.0000
   9.600   1.2766   0.02283   0.01485  -0.0519   0.0540   1.0000
   9.700   1.2819   0.02328   0.01526  -0.0512   0.0486   1.0000
   9.800   1.2877   0.02368   0.01567  -0.0505   0.0433   1.0000
   9.900   1.2923   0.02418   0.01614  -0.0497   0.0390   1.0000
  10.000   1.2970   0.02465   0.01663  -0.0489   0.0340   1.0000
  10.200   1.3040   0.02565   0.01765  -0.0470   0.0281   1.0000
  10.300   1.3068   0.02619   0.01820  -0.0459   0.0258   1.0000
  10.400   1.3084   0.02681   0.01882  -0.0447   0.0240   1.0000
  10.500   1.3118   0.02729   0.01936  -0.0437   0.0228   1.0000
  10.600   1.3148   0.02780   0.01992  -0.0428   0.0216   1.0000
  10.700   1.3177   0.02831   0.02048  -0.0418   0.0209   1.0000
  10.800   1.3201   0.02888   0.02108  -0.0408   0.0201   1.0000
  10.900   1.3216   0.02950   0.02174  -0.0398   0.0195   1.0000
  11.000   1.3223   0.03019   0.02245  -0.0388   0.0190   1.0000
  11.100   1.3237   0.03083   0.02314  -0.0378   0.0186   1.0000
  11.200   1.3257   0.03143   0.02381  -0.0369   0.0182   1.0000
  11.300   1.3276   0.03205   0.02450  -0.0361   0.0179   1.0000
  11.400   1.3289   0.03272   0.02523  -0.0352   0.0174   1.0000
  11.500   1.3305   0.03339   0.02595  -0.0344   0.0170   1.0000
  11.600   1.3319   0.03408   0.02669  -0.0337   0.0167   1.0000
  11.700   1.3325   0.03485   0.02752  -0.0329   0.0165   1.0000
  11.800   1.3343   0.03553   0.02825  -0.0323   0.0161   1.0000
  11.900   1.3343   0.03638   0.02916  -0.0316   0.0159   1.0000
  12.000   1.3352   0.03717   0.03000  -0.0310   0.0156   1.0000
  12.100   1.3353   0.03804   0.03091  -0.0304   0.0152   1.0000
  12.200   1.3344   0.03903   0.03194  -0.0299   0.0150   1.0000
  12.300   1.3327   0.04012   0.03307  -0.0294   0.0148   1.0000
  12.500   1.3306   0.04226   0.03531  -0.0285   0.0145   1.0000
  12.600   1.3302   0.04332   0.03644  -0.0282   0.0144   1.0000
  12.700   1.3303   0.04435   0.03754  -0.0279   0.0141   1.0000
  12.800   1.3291   0.04554   0.03879  -0.0277   0.0141   1.0000
  12.900   1.3286   0.04668   0.03999  -0.0275   0.0140   1.0000
  13.000   1.3274   0.04793   0.04131  -0.0274   0.0138   1.0000
  13.100   1.3265   0.04917   0.04262  -0.0273   0.0137   1.0000
  13.200   1.3254   0.05046   0.04397  -0.0273   0.0136   1.0000
  13.300   1.3242   0.05178   0.04535  -0.0273   0.0136   1.0000
  13.400   1.3227   0.05317   0.04681  -0.0274   0.0134   1.0000
  13.500   1.3211   0.05461   0.04831  -0.0275   0.0133   1.0000
  13.600   1.3196   0.05606   0.04982  -0.0277   0.0133   1.0000
  13.700   1.3180   0.05755   0.05137  -0.0279   0.0132   1.0000
  13.800   1.3162   0.05907   0.05296  -0.0282   0.0131   1.0000
  13.900   1.3143   0.06063   0.05458  -0.0285   0.0131   1.0000
  14.000   1.3125   0.06224   0.05625  -0.0289   0.0130   1.0000
  14.100   1.3106   0.06384   0.05791  -0.0293   0.0129   1.0000
  14.200   1.3082   0.06556   0.05970  -0.0297   0.0128   1.0000
  14.300   1.3059   0.06729   0.06149  -0.0302   0.0128   1.0000
  14.400   1.3038   0.06902   0.06327  -0.0307   0.0127   1.0000
  14.500   1.3016   0.07077   0.06509  -0.0313   0.0127   1.0000
  14.600   1.2989   0.07264   0.06703  -0.0319   0.0126   1.0000
  14.700   1.2962   0.07454   0.06898  -0.0326   0.0125   1.0000
  14.800   1.2939   0.07640   0.07090  -0.0333   0.0125   1.0000
  14.900   1.2912   0.07834   0.07291  -0.0340   0.0124   1.0000
  15.000   1.2883   0.08034   0.07496  -0.0348   0.0124   1.0000
  15.100   1.2855   0.08236   0.07705  -0.0356   0.0123   1.0000
  15.200   1.2827   0.08441   0.07916  -0.0364   0.0123   1.0000
  15.300   1.2795   0.08654   0.08136  -0.0374   0.0123   1.0000
  15.400   1.2765   0.08867   0.08355  -0.0383   0.0123   1.0000
  15.500   1.2731   0.09088   0.08584  -0.0393   0.0122   1.0000
  15.600   1.2697   0.09314   0.08816  -0.0404   0.0121   1.0000
  15.700   1.2664   0.09541   0.09049  -0.0414   0.0121   1.0000
  15.800   1.2628   0.09775   0.09290  -0.0426   0.0121   1.0000
  15.900   1.2591   0.10015   0.09536  -0.0437   0.0121   1.0000
  16.000   1.2553   0.10260   0.09787  -0.0450   0.0120   1.0000
