  
       XFOIL         Version 6.99
  
 Calculated polar for: Selig S-3021                                    
  
 1 1 Reynolds number fixed          Mach number fixed         
  
 xtrf =   1.000 (top)        1.000 (bottom)  
 Mach =   0.030     Re =     0.050 e 6     Ncrit =   9.000
  
   alpha    CL        CD       CDp       CM     Top_Xtr  Bot_Xtr
  ------ -------- --------- --------- -------- -------- --------
  -2.000  -0.1284   0.02459   0.01405  -0.0352   1.0000   0.1737
  -1.900  -0.1216   0.02430   0.01381  -0.0346   1.0000   0.1846
  -1.800  -0.1033   0.02264   0.01300  -0.0358   1.0000   0.2995
  -1.700  -0.0981   0.01935   0.01259  -0.0318   1.0000   1.0000
  -1.600  -0.0845   0.01945   0.01228  -0.0327   1.0000   1.0000
  -1.500  -0.0801   0.01964   0.01222  -0.0319   1.0000   1.0000
  -1.400  -0.0731   0.01982   0.01220  -0.0317   1.0000   1.0000
  -1.300  -0.0644   0.01999   0.01215  -0.0317   1.0000   1.0000
  -1.200  -0.0524   0.02014   0.01210  -0.0324   1.0000   1.0000
  -1.100  -0.0459   0.02034   0.01214  -0.0321   1.0000   1.0000
  -1.000  -0.0388   0.02054   0.01220  -0.0320   1.0000   1.0000
  -0.900  -0.0308   0.02075   0.01224  -0.0319   1.0000   1.0000
  -0.800  -0.0252   0.02097   0.01235  -0.0315   1.0000   1.0000
  -0.700  -0.0184   0.02119   0.01241  -0.0313   1.0000   1.0000
  -0.600  -0.0128   0.02142   0.01254  -0.0309   1.0000   1.0000
  -0.500   0.0074   0.02178   0.01273  -0.0332   0.9964   1.0000
  -0.400   0.0255   0.02220   0.01298  -0.0351   0.9916   1.0000
  -0.300   0.0454   0.02260   0.01322  -0.0373   0.9865   1.0000
  -0.200   0.0683   0.02293   0.01341  -0.0401   0.9821   1.0000
  -0.100   0.0876   0.02329   0.01364  -0.0421   0.9766   1.0000
   0.000   0.1041   0.02367   0.01392  -0.0437   0.9710   1.0000
   0.100   0.1228   0.02401   0.01416  -0.0456   0.9659   1.0000
   0.200   0.1405   0.02436   0.01440  -0.0473   0.9607   1.0000
   0.300   0.1585   0.02470   0.01464  -0.0491   0.9550   1.0000
   0.400   0.1719   0.02506   0.01493  -0.0499   0.9496   1.0000
   0.500   0.1959   0.02532   0.01509  -0.0528   0.9442   1.0000
   0.600   0.2048   0.02571   0.01543  -0.0527   0.9390   1.0000
   0.700   0.2228   0.02601   0.01568  -0.0545   0.9333   1.0000
   0.800   0.2434   0.02628   0.01586  -0.0566   0.9282   1.0000
   0.900   0.2578   0.02660   0.01613  -0.0576   0.9224   1.0000
   1.000   0.2717   0.02693   0.01641  -0.0584   0.9168   1.0000
   1.200   0.3013   0.02753   0.01695  -0.0604   0.9057   1.0000
   1.300   0.3161   0.02784   0.01723  -0.0614   0.8999   1.0000
   1.400   0.3340   0.02810   0.01744  -0.0630   0.8944   1.0000
   1.500   0.3466   0.02841   0.01773  -0.0635   0.8884   1.0000
   1.600   0.3604   0.02869   0.01799  -0.0642   0.8822   1.0000
   1.700   0.3757   0.02897   0.01825  -0.0652   0.8770   1.0000
   1.800   0.3901   0.02925   0.01852  -0.0660   0.8710   1.0000
