  
       XFOIL         Version 6.99
  
 Calculated polar for: Selig S-3021                                    
  
 1 1 Reynolds number fixed          Mach number fixed         
  
 xtrf =   1.000 (top)        1.000 (bottom)  
 Mach =   0.030     Re =     0.200 e 6     Ncrit =   6.000
  
   alpha    CL        CD       CDp       CM     Top_Xtr  Bot_Xtr
  ------ -------- --------- --------- -------- -------- --------
  -2.000   0.0862   0.01107   0.00339  -0.0594   0.7903   0.1961
  -1.900   0.0961   0.01086   0.00333  -0.0593   0.7857   0.2421
  -1.800   0.1055   0.01060   0.00328  -0.0591   0.7809   0.3023
  -1.700   0.1149   0.01035   0.00323  -0.0588   0.7764   0.3631
  -1.600   0.1241   0.01011   0.00319  -0.0585   0.7721   0.4249
  -1.500   0.1326   0.00984   0.00317  -0.0580   0.7681   0.4965
  -1.400   0.1408   0.00957   0.00316  -0.0573   0.7636   0.5711
  -1.300   0.1467   0.00916   0.00318  -0.0560   0.7596   0.6845
  -1.200   0.1541   0.00890   0.00320  -0.0547   0.7557   0.7744
  -1.100   0.1713   0.00873   0.00325  -0.0551   0.7516   0.8857
  -1.000   0.1940   0.00870   0.00320  -0.0572   0.7476   0.9380
  -0.900   0.2123   0.00871   0.00313  -0.0585   0.7436   0.9640
  -0.700   0.2514   0.00871   0.00298  -0.0620   0.7350   0.9903
  -0.600   0.2739   0.00870   0.00290  -0.0644   0.7308   1.0000
  -0.500   0.2829   0.00873   0.00286  -0.0639   0.7267   1.0000
  -0.400   0.2938   0.00876   0.00283  -0.0639   0.7225   1.0000
  -0.300   0.3037   0.00878   0.00280  -0.0636   0.7180   1.0000
  -0.100   0.3214   0.00884   0.00275  -0.0626   0.7099   1.0000
   0.000   0.3324   0.00888   0.00273  -0.0626   0.7057   1.0000
   0.100   0.3424   0.00891   0.00271  -0.0623   0.7013   1.0000
   0.200   0.3525   0.00894   0.00269  -0.0621   0.6974   1.0000
   0.300   0.3618   0.00898   0.00268  -0.0617   0.6929   1.0000
   0.400   0.3738   0.00901   0.00268  -0.0618   0.6887   1.0000
   0.500   0.3817   0.00905   0.00266  -0.0611   0.6845   1.0000
   0.600   0.3936   0.00909   0.00266  -0.0613   0.6804   1.0000
   0.700   0.4036   0.00912   0.00266  -0.0610   0.6761   1.0000
   0.800   0.4126   0.00916   0.00266  -0.0605   0.6715   1.0000
   0.900   0.4230   0.00920   0.00265  -0.0604   0.6674   1.0000
   1.000   0.4336   0.00924   0.00266  -0.0602   0.6632   1.0000
   1.100   0.4453   0.00928   0.00267  -0.0604   0.6586   1.0000
   1.200   0.4545   0.00932   0.00268  -0.0599   0.6543   1.0000
   1.300   0.4635   0.00936   0.00269  -0.0594   0.6502   1.0000
   1.400   0.4738   0.00941   0.00270  -0.0592   0.6460   1.0000
   1.500   0.4842   0.00945   0.00272  -0.0591   0.6417   1.0000
   1.600   0.4953   0.00949   0.00273  -0.0590   0.6373   1.0000
   1.700   0.5048   0.00954   0.00275  -0.0587   0.6333   1.0000
   1.800   0.5153   0.00958   0.00277  -0.0585   0.6287   1.0000
   1.900   0.5269   0.00963   0.00280  -0.0586   0.6242   1.0000
   2.000   0.5357   0.00967   0.00282  -0.0581   0.6198   1.0000
   2.100   0.5461   0.00972   0.00284  -0.0579   0.6158   1.0000
   2.200   0.5565   0.00977   0.00287  -0.0577   0.6111   1.0000
   2.300   0.5666   0.00982   0.00291  -0.0575   0.6067   1.0000
   2.400   0.5772   0.00986   0.00293  -0.0574   0.6014   1.0000
   2.500   0.5871   0.00991   0.00297  -0.0571   0.5969   1.0000
   2.600   0.5979   0.00997   0.00300  -0.0570   0.5925   1.0000
   2.700   0.6075   0.01002   0.00304  -0.0567   0.5878   1.0000
   2.800   0.6186   0.01007   0.00308  -0.0567   0.5831   1.0000
   2.900   0.6289   0.01012   0.00313  -0.0565   0.5780   1.0000
   3.000   0.6382   0.01018   0.00316  -0.0561   0.5730   1.0000
   3.100   0.6492   0.01023   0.00320  -0.0561   0.5680   1.0000
   3.200   0.6590   0.01029   0.00325  -0.0558   0.5625   1.0000
   3.300   0.6695   0.01035   0.00330  -0.0556   0.5577   1.0000
   3.500   0.6899   0.01047   0.00340  -0.0552   0.5468   1.0000
   3.600   0.7004   0.01053   0.00346  -0.0551   0.5412   1.0000
   3.700   0.7102   0.01059   0.00352  -0.0548   0.5355   1.0000
   3.800   0.7207   0.01065   0.00357  -0.0547   0.5295   1.0000
   3.900   0.7308   0.01072   0.00363  -0.0545   0.5238   1.0000
   4.000   0.7408   0.01079   0.00369  -0.0542   0.5178   1.0000
   4.100   0.7510   0.01086   0.00375  -0.0541   0.5113   1.0000
   4.200   0.7613   0.01093   0.00383  -0.0539   0.5046   1.0000
   4.300   0.7712   0.01101   0.00389  -0.0536   0.4974   1.0000
   4.400   0.7816   0.01108   0.00397  -0.0535   0.4919   1.0000
