  
       XFOIL         Version 6.99
  
 Calculated polar for: Selig S-3021                                    
  
 1 1 Reynolds number fixed          Mach number fixed         
  
 xtrf =   1.000 (top)        1.000 (bottom)  
 Mach =   0.030     Re =     0.200 e 6     Ncrit =   9.000
  
   alpha    CL        CD       CDp       CM     Top_Xtr  Bot_Xtr
  ------ -------- --------- --------- -------- -------- --------
  -2.000   0.0929   0.01031   0.00412  -0.0637   0.8557   0.4286
  -1.900   0.1006   0.01000   0.00410  -0.0630   0.8506   0.5064
  -1.800   0.1070   0.00960   0.00409  -0.0619   0.8456   0.6111
  -1.700   0.1123   0.00923   0.00411  -0.0602   0.8408   0.7191
  -1.600   0.1216   0.00895   0.00416  -0.0589   0.8372   0.8346
  -1.500   0.1562   0.00885   0.00413  -0.0627   0.8344   0.9518
  -1.400   0.1931   0.00879   0.00396  -0.0677   0.8317   0.9899
  -1.300   0.2159   0.00875   0.00381  -0.0702   0.8272   1.0000
  -1.200   0.2222   0.00876   0.00375  -0.0692   0.8216   1.0000
  -1.100   0.2325   0.00879   0.00370  -0.0690   0.8164   1.0000
  -1.000   0.2433   0.00881   0.00364  -0.0689   0.8117   1.0000
  -0.900   0.2530   0.00884   0.00360  -0.0685   0.8072   1.0000
  -0.800   0.2639   0.00887   0.00355  -0.0685   0.8027   1.0000
  -0.700   0.2744   0.00890   0.00352  -0.0683   0.7977   1.0000
  -0.600   0.2858   0.00893   0.00349  -0.0684   0.7930   1.0000
  -0.500   0.2945   0.00896   0.00346  -0.0678   0.7882   1.0000
  -0.400   0.3054   0.00900   0.00343  -0.0677   0.7840   1.0000
  -0.300   0.3150   0.00903   0.00340  -0.0673   0.7793   1.0000
  -0.100   0.3322   0.00911   0.00338  -0.0662   0.7699   1.0000
   0.000   0.3431   0.00915   0.00336  -0.0661   0.7656   1.0000
   0.100   0.3530   0.00918   0.00334  -0.0658   0.7612   1.0000
   0.200   0.3630   0.00922   0.00334  -0.0655   0.7565   1.0000
   0.300   0.3721   0.00927   0.00333  -0.0651   0.7518   1.0000
   0.400   0.3840   0.00931   0.00333  -0.0652   0.7474   1.0000
   0.500   0.3916   0.00935   0.00332  -0.0644   0.7431   1.0000
   0.600   0.4036   0.00939   0.00332  -0.0645   0.7387   1.0000
   0.700   0.4135   0.00943   0.00333  -0.0642   0.7341   1.0000
   0.800   0.4222   0.00948   0.00333  -0.0637   0.7294   1.0000
   0.900   0.4325   0.00952   0.00333  -0.0635   0.7250   1.0000
   1.000   0.4431   0.00956   0.00333  -0.0633   0.7210   1.0000
   1.100   0.4548   0.00961   0.00335  -0.0634   0.7162   1.0000
   1.200   0.4639   0.00965   0.00337  -0.0629   0.7116   1.0000
   1.300   0.4726   0.00970   0.00338  -0.0624   0.7073   1.0000
   1.400   0.4829   0.00975   0.00338  -0.0621   0.7034   1.0000
   1.500   0.4932   0.00980   0.00341  -0.0619   0.6987   1.0000
   1.600   0.5042   0.00984   0.00344  -0.0619   0.6941   1.0000
   1.700   0.5136   0.00989   0.00345  -0.0615   0.6897   1.0000
   1.800   0.5241   0.00994   0.00347  -0.0613   0.6855   1.0000
   1.900   0.5357   0.00999   0.00350  -0.0613   0.6809   1.0000
   2.000   0.5443   0.01004   0.00353  -0.0608   0.6762   1.0000
   2.100   0.5546   0.01009   0.00356  -0.0606   0.6719   1.0000
   2.200   0.5649   0.01014   0.00358  -0.0604   0.6676   1.0000
   2.300   0.5750   0.01019   0.00361  -0.0601   0.6631   1.0000
   2.400   0.5855   0.01023   0.00364  -0.0599   0.6579   1.0000
   2.500   0.5953   0.01028   0.00368  -0.0596   0.6532   1.0000
   2.600   0.6061   0.01033   0.00372  -0.0595   0.6486   1.0000
   2.700   0.6155   0.01039   0.00374  -0.0591   0.6441   1.0000
   2.800   0.6267   0.01044   0.00378  -0.0591   0.6398   1.0000
   2.900   0.6369   0.01049   0.00383  -0.0588   0.6346   1.0000
   3.000   0.6460   0.01054   0.00387  -0.0584   0.6295   1.0000
   3.100   0.6572   0.01059   0.00391  -0.0584   0.6246   1.0000
   3.200   0.6668   0.01064   0.00395  -0.0580   0.6194   1.0000
   3.300   0.6774   0.01069   0.00399  -0.0578   0.6145   1.0000
   3.400   0.6877   0.01075   0.00403  -0.0576   0.6095   1.0000
   3.500   0.6976   0.01080   0.00407  -0.0573   0.6044   1.0000
   3.600   0.7083   0.01085   0.00412  -0.0572   0.5989   1.0000
   3.700   0.7179   0.01090   0.00418  -0.0569   0.5934   1.0000
   3.800   0.7284   0.01096   0.00423  -0.0567   0.5878   1.0000
   3.900   0.7385   0.01101   0.00428  -0.0565   0.5822   1.0000
   4.000   0.7484   0.01107   0.00433  -0.0562   0.5765   1.0000
   4.100   0.7586   0.01112   0.00438  -0.0560   0.5705   1.0000
   4.200   0.7689   0.01118   0.00444  -0.0557   0.5645   1.0000
   4.300   0.7785   0.01124   0.00450  -0.0554   0.5583   1.0000
   4.400   0.7893   0.01130   0.00456  -0.0553   0.5526   1.0000
   4.500   0.7993   0.01136   0.00463  -0.0551   0.5460   1.0000
   4.600   0.8093   0.01142   0.00469  -0.0548   0.5390   1.0000
   4.700   0.8194   0.01149   0.00476  -0.0546   0.5325   1.0000
   4.800   0.8292   0.01156   0.00483  -0.0543   0.5255   1.0000
   4.900   0.8392   0.01163   0.00489  -0.0541   0.5185   1.0000
   5.000   0.8491   0.01170   0.00497  -0.0538   0.5114   1.0000
   5.100   0.8590   0.01178   0.00505  -0.0535   0.5035   1.0000
   5.200   0.8688   0.01186   0.00513  -0.0533   0.4957   1.0000
   5.300   0.8785   0.01194   0.00521  -0.0530   0.4876   1.0000
   5.400   0.8883   0.01203   0.00530  -0.0527   0.4797   1.0000
   5.500   0.8980   0.01212   0.00539  -0.0524   0.4717   1.0000
   5.600   0.9077   0.01222   0.00549  -0.0521   0.4629   1.0000
   5.700   0.9173   0.01233   0.00559  -0.0518   0.4545   1.0000
   5.800   0.9267   0.01243   0.00569  -0.0515   0.4449   1.0000
   5.900   0.9362   0.01255   0.00580  -0.0512   0.4359   1.0000
   6.000   0.9455   0.01268   0.00592  -0.0509   0.4267   1.0000
   6.100   0.9551   0.01280   0.00604  -0.0506   0.4168   1.0000
   6.200   0.9649   0.01295   0.00618  -0.0504   0.4071   1.0000
   6.400   0.9830   0.01325   0.00645  -0.0497   0.3866   1.0000
   6.500   0.9916   0.01340   0.00659  -0.0493   0.3763   1.0000
   6.600   1.0009   0.01358   0.00674  -0.0490   0.3647   1.0000
   6.700   1.0101   0.01377   0.00691  -0.0487   0.3523   1.0000
   6.800   1.0190   0.01394   0.00708  -0.0484   0.3427   1.0000
   6.900   1.0268   0.01413   0.00725  -0.0478   0.3325   1.0000
   7.000   1.0356   0.01436   0.00741  -0.0476   0.3160   1.0000
   7.100   1.0441   0.01458   0.00760  -0.0472   0.3045   1.0000
   7.200   1.0524   0.01481   0.00780  -0.0468   0.2913   1.0000
   7.300   1.0609   0.01507   0.00801  -0.0465   0.2772   1.0000
   7.400   1.0691   0.01531   0.00822  -0.0461   0.2648   1.0000
   7.500   1.0767   0.01556   0.00844  -0.0456   0.2534   1.0000
   7.600   1.0849   0.01582   0.00867  -0.0453   0.2416   1.0000
   7.700   1.0936   0.01610   0.00892  -0.0450   0.2282   1.0000
   7.800   1.1011   0.01635   0.00915  -0.0445   0.2190   1.0000
   7.900   1.1102   0.01664   0.00942  -0.0444   0.2065   1.0000
   8.000   1.1177   0.01692   0.00967  -0.0439   0.1962   1.0000
   8.100   1.1249   0.01723   0.00993  -0.0434   0.1827   1.0000
   8.200   1.1327   0.01753   0.01020  -0.0430   0.1718   1.0000
   8.300   1.1409   0.01790   0.01051  -0.0428   0.1569   1.0000
   8.400   1.1474   0.01824   0.01080  -0.0422   0.1439   1.0000
   8.500   1.1543   0.01857   0.01110  -0.0417   0.1337   1.0000
   8.600   1.1614   0.01894   0.01143  -0.0412   0.1222   1.0000
   8.700   1.1676   0.01938   0.01180  -0.0406   0.1064   1.0000
   8.800   1.1719   0.01988   0.01219  -0.0398   0.0896   1.0000
   8.900   1.1744   0.02099   0.01300  -0.0391   0.0560   1.0000
   9.000   1.1747   0.02207   0.01389  -0.0378   0.0392   1.0000
   9.100   1.1777   0.02283   0.01461  -0.0368   0.0334   1.0000
   9.200   1.1823   0.02338   0.01516  -0.0360   0.0312   1.0000
   9.300   1.1883   0.02394   0.01576  -0.0355   0.0299   1.0000
   9.400   1.1917   0.02453   0.01637  -0.0346   0.0279   1.0000
   9.500   1.1959   0.02513   0.01701  -0.0338   0.0267   1.0000
   9.600   1.1992   0.02564   0.01756  -0.0327   0.0256   1.0000
   9.700   1.2034   0.02622   0.01819  -0.0320   0.0252   1.0000
   9.800   1.2034   0.02682   0.01878  -0.0306   0.0242   1.0000
   9.900   1.2038   0.02737   0.01935  -0.0293   0.0239   1.0000
  10.000   1.2102   0.02806   0.02011  -0.0292   0.0233   1.0000
  10.100   1.2092   0.02868   0.02079  -0.0276   0.0225   1.0000
  10.200   1.2124   0.02922   0.02136  -0.0269   0.0225   1.0000
  10.300   1.2131   0.02990   0.02208  -0.0258   0.0224   1.0000
  10.400   1.2171   0.03062   0.02282  -0.0255   0.0220   1.0000
  10.500   1.2155   0.03133   0.02354  -0.0241   0.0215   1.0000
  10.600   1.2182   0.03201   0.02425  -0.0235   0.0216   1.0000
  10.700   1.2183   0.03297   0.02516  -0.0228   0.0210   1.0000
  10.800   1.2220   0.03366   0.02596  -0.0223   0.0203   1.0000
  10.900   1.2254   0.03435   0.02668  -0.0218   0.0203   1.0000
  11.000   1.2259   0.03513   0.02750  -0.0209   0.0201   1.0000
  11.100   1.2290   0.03592   0.02833  -0.0204   0.0199   1.0000
  11.200   1.2308   0.03675   0.02919  -0.0196   0.0197   1.0000
  11.300   1.2338   0.03745   0.02992  -0.0191   0.0196   1.0000
  11.400   1.2386   0.03823   0.03074  -0.0189   0.0195   1.0000
  11.500   1.2394   0.03907   0.03157  -0.0179   0.0191   1.0000
  11.600   1.2440   0.03998   0.03245  -0.0175   0.0188   1.0000
  11.700   1.2500   0.04068   0.03322  -0.0173   0.0189   1.0000
  11.800   1.2526   0.04134   0.03391  -0.0165   0.0188   1.0000
  12.000   1.2663   0.04307   0.03564  -0.0157   0.0185   1.0000
  12.100   1.2712   0.04403   0.03670  -0.0153   0.0184   1.0000
  12.200   1.2741   0.04484   0.03758  -0.0147   0.0184   1.0000
  12.300   1.2734   0.04608   0.03900  -0.0143   0.0179   1.0000
  12.400   1.2756   0.04681   0.03979  -0.0137   0.0180   1.0000
  12.500   1.2807   0.04800   0.04108  -0.0136   0.0179   1.0000
  12.600   1.2794   0.04939   0.04261  -0.0128   0.0174   1.0000
  12.700   1.2825   0.05022   0.04350  -0.0124   0.0177   1.0000
  12.800   1.2848   0.05142   0.04479  -0.0123   0.0177   1.0000
  12.900   1.2849   0.05264   0.04611  -0.0117   0.0177   1.0000
  13.000   1.2847   0.05376   0.04731  -0.0111   0.0177   1.0000
  13.100   1.2841   0.05541   0.04910  -0.0110   0.0177   1.0000
  13.200   1.2829   0.05687   0.05067  -0.0108   0.0177   1.0000
  13.300   1.2845   0.05814   0.05202  -0.0108   0.0178   1.0000
  13.400   1.2802   0.05985   0.05386  -0.0106   0.0178   1.0000
  13.500   1.2772   0.06133   0.05543  -0.0105   0.0178   1.0000
  13.600   1.2769   0.06279   0.05697  -0.0105   0.0179   1.0000
  13.700   1.2730   0.06455   0.05884  -0.0105   0.0180   1.0000
  13.800   1.2678   0.06609   0.06048  -0.0103   0.0180   1.0000
  14.000   1.2603   0.06992   0.06451  -0.0111   0.0181   1.0000
  14.100   1.2600   0.07154   0.06620  -0.0114   0.0182   1.0000
  14.200   1.2507   0.07385   0.06864  -0.0121   0.0181   1.0000
  14.300   1.2432   0.07597   0.07085  -0.0125   0.0182   1.0000
  14.400   1.2335   0.07865   0.07367  -0.0139   0.0180   1.0000
  14.500   1.2444   0.07924   0.07421  -0.0131   0.0184   1.0000
  14.600   1.2370   0.08139   0.07644  -0.0139   0.0184   1.0000
  14.700   1.2243   0.08390   0.07908  -0.0150   0.0183   1.0000
  14.800   1.2291   0.08548   0.08068  -0.0154   0.0185   1.0000
  14.900   1.2134   0.08878   0.08412  -0.0171   0.0184   1.0000
  15.000   1.2029   0.09171   0.08716  -0.0189   0.0184   1.0000
  15.100   1.2017   0.09324   0.08872  -0.0190   0.0185   1.0000
  15.200   1.2059   0.09446   0.08993  -0.0189   0.0186   1.0000
  15.300   1.1692   0.10154   0.09737  -0.0248   0.0190   1.0000
  15.400   1.1822   0.10113   0.09684  -0.0233   0.0187   1.0000
