  
       XFOIL         Version 6.99
  
 Calculated polar for: Selig S-3021                                    
  
 1 1 Reynolds number fixed          Mach number fixed         
  
 xtrf =   1.000 (top)        1.000 (bottom)  
 Mach =   0.030     Re =     0.100 e 6     Ncrit =   9.000
  
   alpha    CL        CD       CDp       CM     Top_Xtr  Bot_Xtr
  ------ -------- --------- --------- -------- -------- --------
  -2.000   0.0334   0.01468   0.00900  -0.0596   0.9324   0.7686
  -1.900   0.0955   0.01430   0.00868  -0.0684   0.9377   1.0000
  -1.800   0.1130   0.01428   0.00847  -0.0697   0.9338   1.0000
  -1.700   0.1332   0.01428   0.00831  -0.0714   0.9304   1.0000
  -1.600   0.1481   0.01422   0.00813  -0.0722   0.9259   1.0000
  -1.500   0.1639   0.01426   0.00806  -0.0731   0.9213   1.0000
  -1.400   0.1802   0.01426   0.00797  -0.0741   0.9172   1.0000
  -1.200   0.2100   0.01420   0.00770  -0.0755   0.9086   1.0000
  -1.100   0.2239   0.01421   0.00763  -0.0760   0.9038   1.0000
  -1.000   0.2377   0.01423   0.00755  -0.0765   0.8995   1.0000
  -0.800   0.2656   0.01422   0.00740  -0.0774   0.8906   1.0000
  -0.600   0.2897   0.01428   0.00733  -0.0776   0.8808   1.0000
  -0.500   0.3011   0.01429   0.00729  -0.0775   0.8762   1.0000
  -0.400   0.3139   0.01429   0.00722  -0.0777   0.8718   1.0000
  -0.300   0.3250   0.01432   0.00719  -0.0775   0.8672   1.0000
  -0.100   0.3441   0.01440   0.00717  -0.0767   0.8572   1.0000
